SM11
                    3D
 Structure written by MMmdl.
 25 27  0  0  1  0            999 V2000
   -2.8097   -0.0408   -0.0264 C   0  0  0  0  0  0
   -2.0739   -1.2345    0.0982 C   0  0  0  0  0  0
   -0.6660   -1.1979    0.1060 C   0  0  0  0  0  0
    0.0171    0.0352   -0.0070 C   0  0  0  0  0  0
   -0.7289    1.2285   -0.1358 C   0  0  0  0  0  0
   -2.1367    1.1900   -0.1449 C   0  0  0  0  0  0
    1.4344    0.0714   -0.0014 N   0  0  0  0  0  0
    2.2727    1.0041    0.6049 C   0  0  0  0  0  0
    3.5843    0.5585    0.2962 C   0  0  0  0  0  0
    3.4049   -0.6290   -0.4790 C   0  0  0  0  0  0
    2.1338   -0.9103   -0.6416 N   0  0  0  0  0  0
    4.6388    1.3528    0.8061 C   0  0  0  0  0  0
    4.3393    2.4507    1.5373 N   0  0  0  0  0  0
    3.0548    2.7528    1.7595 C   0  0  0  0  0  0
    1.9584    2.1072    1.3480 N   0  0  0  0  0  0
    5.9834    1.0581    0.5936 N   0  0  0  0  0  0
   -3.8893   -0.0692   -0.0324 H   0  0  0  0  0  0
   -2.5895   -2.1793    0.1883 H   0  0  0  0  0  0
   -0.1161   -2.1225    0.2062 H   0  0  0  0  0  0
   -0.2292    2.1803   -0.2382 H   0  0  0  0  0  0
   -2.7002    2.1058   -0.2452 H   0  0  0  0  0  0
    4.1550   -1.2755   -0.9096 H   0  0  0  0  0  0
    2.8797    3.6386    2.3518 H   0  0  0  0  0  0
    6.2660    0.1735    0.0040 H   0  0  0  0  0  0
    6.7626    1.7099    1.0154 H   0  0  0  0  0  0
  1  6  1  0  0  0
  1  2  2  0  0  0
  1 17  1  0  0  0
  2  3  1  0  0  0
  2 18  1  0  0  0
  3  4  2  0  0  0
  3 19  1  0  0  0
  4  5  1  0  0  0
  4  7  1  0  0  0
  5  6  2  0  0  0
  5 20  1  0  0  0
  6 21  1  0  0  0
  7 11  1  0  0  0
  7  8  1  0  0  0
  8 15  2  0  0  0
  8  9  1  0  0  0
  9 10  1  0  0  0
  9 12  2  0  0  0
 10 11  2  0  0  0
 10 22  1  0  0  0
 12 13  1  0  0  0
 12 16  1  0  0  0
 13 14  2  0  0  0
 14 15  1  0  0  0
 14 23  1  0  0  0
 16 24  1  0  0  0
 16 25  1  0  0  0
M  END
> <s_m_source_file>
SM11.smi

> <i_m_source_file_index>
1

> <i_lp_mmshare_version>
40011

> <i_f3d_flags>
0

> <s_lp_Force_Field>
OPLS_2005

> <r_lp_Energy>
7.95522705074922

> <b_lp_Chiralities_Consistent>
1

> <s_lp_Variant>
SM11-1

> <s_epik_input>
W2NIXTFbY0hdW2NIXVtjSF1bY0hdYzEtbjJuW2NIXWMoYzIzKWMoW05IMl0pbltjSF1uMw==

> <s_epik_cmdline>
J2VwaWtfYXBwJywgJy1pbWFlJywgJ1NNMTEuOC4zLm1hZScsICctb21hZScsICdTTTExLmVwaWsuOC4zLm1hZScsICctcCcsICcwLjAwMDA0NTM5OTkyOTgnLCAnLXBoJywgJzguMyc=

> <r_lp_tautomer_probability>
1

> <r_epik_Ionization_Penalty>
  0.0000

> <r_epik_Ionization_Penalty_Charging>
  0.0000

> <r_epik_Ionization_Penalty_Neutral>
  0.0000

> <r_epik_State_Penalty>
 -0.0000

> <r_epik_Charging_Adjusted_Penalty>
0

> <i_epik_Tot_Q>
0

> <i_epik_Tot_abs_Q>
0

$$$$
