SM07
                    3D
 Structure written by MMmdl.
 32 34  0  0  1  0            999 V2000
   -1.4978    4.0640   -0.0000 C   0  0  0  0  0  0
   -1.2476    3.4055   -1.2197 C   0  0  0  0  0  0
   -0.7468    2.0888   -1.2199 C   0  0  0  0  0  0
   -0.4978    1.4261   -0.0000 C   0  0  0  0  0  0
   -0.7467    2.0888    1.2200 C   0  0  0  0  0  0
   -1.2476    3.4055    1.2197 C   0  0  0  0  0  0
    0.0480    0.0135   -0.0000 C   0  0  0  0  0  0
    1.5026   -0.0265   -0.0000 N   0  0  0  0  0  0
    2.1984   -1.2466   -0.0000 C   0  0  0  0  0  0
    3.6179   -1.2747   -0.0000 C   0  0  0  0  0  0
    4.4080   -0.1016   -0.0000 C   0  0  0  0  0  0
    5.8118   -0.1963   -0.0000 C   0  0  0  0  0  0
    6.4311   -1.4590    0.0000 C   0  0  0  0  0  0
    5.6470   -2.6281    0.0000 C   0  0  0  0  0  0
    4.2380   -2.5564    0.0000 C   0  0  0  0  0  0
    3.4889   -3.6817    0.0000 N   0  3  0  0  0  0
    2.1628   -3.5420   -0.0000 C   0  0  0  0  0  0
    1.4822   -2.3957   -0.0000 N   0  0  0  0  0  0
   -1.8803    5.0741   -0.0000 H   0  0  0  0  0  0
   -1.4390    3.9106   -2.1551 H   0  0  0  0  0  0
   -0.5535    1.5890   -2.1579 H   0  0  0  0  0  0
   -0.5535    1.5890    2.1579 H   0  0  0  0  0  0
   -1.4390    3.9106    2.1551 H   0  0  0  0  0  0
   -0.3036   -0.5154    0.8981 H   0  0  0  0  0  0
   -0.3036   -0.5154   -0.8982 H   0  0  0  0  0  0
    2.0785    0.9107   -0.0000 H   0  0  0  0  0  0
    3.9520    0.8772   -0.0001 H   0  0  0  0  0  0
    6.4139    0.7005   -0.0000 H   0  0  0  0  0  0
    7.5088   -1.5314    0.0000 H   0  0  0  0  0  0
    6.1338   -3.5925    0.0001 H   0  0  0  0  0  0
    1.5799   -4.4510   -0.0000 H   0  0  0  0  0  0
    3.9771   -4.6674    0.0000 H   0  0  0  0  0  0
  1  6  1  0  0  0
  1  2  2  0  0  0
  1 19  1  0  0  0
  2  3  1  0  0  0
  2 20  1  0  0  0
  3  4  2  0  0  0
  3 21  1  0  0  0
  4  5  1  0  0  0
  4  7  1  0  0  0
  5  6  2  0  0  0
  5 22  1  0  0  0
  6 23  1  0  0  0
  7  8  1  0  0  0
  7 24  1  0  0  0
  7 25  1  0  0  0
  8  9  1  0  0  0
  8 26  1  0  0  0
  9 18  1  0  0  0
  9 10  2  0  0  0
 10 15  1  0  0  0
 10 11  1  0  0  0
 11 12  2  0  0  0
 11 27  1  0  0  0
 12 13  1  0  0  0
 12 28  1  0  0  0
 13 14  2  0  0  0
 13 29  1  0  0  0
 14 15  1  0  0  0
 14 30  1  0  0  0
 15 16  2  0  0  0
 16 17  1  0  0  0
 16 32  1  0  0  0
 17 18  2  0  0  0
 17 31  1  0  0  0
M  CHG  1  16   1
M  END
> <s_m_source_file>
SM07.smi

> <i_m_source_file_index>
1

> <i_lp_mmshare_version>
40011

> <i_f3d_flags>
0

> <s_lp_Force_Field>
OPLS_2005

> <r_lp_Energy>
10.1904099344314

> <b_lp_Chiralities_Consistent>
1

> <s_lp_Variant>
SM07-1

> <s_epik_input>
W2NIXTFbY0hdW2NIXVtjSF1bY0hdYzFbQ0gyXVtOSF1jMm5bY0hdbmMoYzIzKVtjSF1bY0hdW2NIXVtjSF0z

> <s_epik_cmdline>
J2VwaWtfYXBwJywgJy1pbWFlJywgJ1NNMDcuMy45Lm1hZScsICctb21hZScsICdTTTA3LmVwaWsuMy45Lm1hZScsICctcCcsICcwLjAwMDA0NTM5OTkyOTgnLCAnLXBoJywgJzMuOSc=

> <r_lp_tautomer_probability>
0.993507999998615

> <r_epik_Ionization_Penalty>
  0.0117

> <r_epik_Ionization_Penalty_Charging>
  0.0117

> <r_epik_Ionization_Penalty_Neutral>
  0.0000

> <r_epik_State_Penalty>
  0.0102

> <r_epik_Charging_Adjusted_Penalty>
0.0219294589122316

> <i_epik_Tot_Q>
1

> <i_epik_Tot_abs_Q>
1

$$$$
SM07
                    3D
 Structure written by MMmdl.
 31 33  0  0  1  0            999 V2000
   -1.4978    4.0640   -0.0000 C   0  0  0  0  0  0
   -1.2476    3.4055   -1.2197 C   0  0  0  0  0  0
   -0.7468    2.0888   -1.2199 C   0  0  0  0  0  0
   -0.4978    1.4261   -0.0000 C   0  0  0  0  0  0
   -0.7467    2.0888    1.2200 C   0  0  0  0  0  0
   -1.2476    3.4055    1.2197 C   0  0  0  0  0  0
    0.0480    0.0135   -0.0000 C   0  0  0  0  0  0
    1.5026   -0.0265   -0.0000 N   0  0  0  0  0  0
    2.1984   -1.2466   -0.0000 C   0  0  0  0  0  0
    3.6179   -1.2747   -0.0000 C   0  0  0  0  0  0
    4.4080   -0.1016   -0.0000 C   0  0  0  0  0  0
    5.8118   -0.1963   -0.0000 C   0  0  0  0  0  0
    6.4311   -1.4590    0.0000 C   0  0  0  0  0  0
    5.6470   -2.6281    0.0000 C   0  0  0  0  0  0
    4.2380   -2.5564    0.0000 C   0  0  0  0  0  0
    3.4889   -3.6817    0.0000 N   0  0  0  0  0  0
    2.1628   -3.5420   -0.0000 C   0  0  0  0  0  0
    1.4822   -2.3957   -0.0000 N   0  0  0  0  0  0
   -1.8803    5.0741   -0.0000 H   0  0  0  0  0  0
   -1.4390    3.9106   -2.1551 H   0  0  0  0  0  0
   -0.5535    1.5890   -2.1579 H   0  0  0  0  0  0
   -0.5535    1.5890    2.1579 H   0  0  0  0  0  0
   -1.4390    3.9106    2.1551 H   0  0  0  0  0  0
   -0.3036   -0.5154    0.8981 H   0  0  0  0  0  0
   -0.3036   -0.5154   -0.8982 H   0  0  0  0  0  0
    2.0785    0.9107   -0.0000 H   0  0  0  0  0  0
    3.9520    0.8772   -0.0001 H   0  0  0  0  0  0
    6.4139    0.7005   -0.0000 H   0  0  0  0  0  0
    7.5088   -1.5314    0.0000 H   0  0  0  0  0  0
    6.1338   -3.5925    0.0001 H   0  0  0  0  0  0
    1.5799   -4.4510   -0.0000 H   0  0  0  0  0  0
  1  6  1  0  0  0
  1  2  2  0  0  0
  1 19  1  0  0  0
  2  3  1  0  0  0
  2 20  1  0  0  0
  3  4  2  0  0  0
  3 21  1  0  0  0
  4  5  1  0  0  0
  4  7  1  0  0  0
  5  6  2  0  0  0
  5 22  1  0  0  0
  6 23  1  0  0  0
  7  8  1  0  0  0
  7 24  1  0  0  0
  7 25  1  0  0  0
  8  9  1  0  0  0
  8 26  1  0  0  0
  9 18  1  0  0  0
  9 10  2  0  0  0
 10 15  1  0  0  0
 10 11  1  0  0  0
 11 12  2  0  0  0
 11 27  1  0  0  0
 12 13  1  0  0  0
 12 28  1  0  0  0
 13 14  2  0  0  0
 13 29  1  0  0  0
 14 15  1  0  0  0
 14 30  1  0  0  0
 15 16  2  0  0  0
 16 17  1  0  0  0
 17 18  2  0  0  0
 17 31  1  0  0  0
M  END
> <s_m_source_file>
SM07.smi

> <i_m_source_file_index>
1

> <i_lp_mmshare_version>
40011

> <i_f3d_flags>
0

> <s_lp_Force_Field>
OPLS_2005

> <r_lp_Energy>
10.1904099344314

> <b_lp_Chiralities_Consistent>
1

> <s_lp_Variant>
SM07-1

> <s_epik_input>
W2NIXTFbY0hdW2NIXVtjSF1bY0hdYzFbQ0gyXVtOSF1jMm5bY0hdbmMoYzIzKVtjSF1bY0hdW2NIXVtjSF0z

> <s_epik_cmdline>
J2VwaWtfYXBwJywgJy1pbWFlJywgJ1NNMDcuMy45Lm1hZScsICctb21hZScsICdTTTA3LmVwaWsuMy45Lm1hZScsICctcCcsICcwLjAwMDA0NTM5OTkyOTgnLCAnLXBoJywgJzMuOSc=

> <r_lp_tautomer_probability>
0.999978000241998

> <r_epik_Ionization_Penalty>
  2.7266

> <r_epik_Ionization_Penalty_Charging>
  0.0000

> <r_epik_Ionization_Penalty_Neutral>
  2.7266

> <r_epik_State_Penalty>
  2.7094

> <r_epik_Charging_Adjusted_Penalty>
2.70937140269985

> <i_epik_Tot_Q>
0

> <i_epik_Tot_abs_Q>
0

$$$$
SM07
                    3D
 Structure written by MMmdl.
 32 34  0  0  1  0            999 V2000
   -1.4978    4.0640   -0.0000 C   0  0  0  0  0  0
   -1.2476    3.4055   -1.2197 C   0  0  0  0  0  0
   -0.7468    2.0888   -1.2199 C   0  0  0  0  0  0
   -0.4978    1.4261   -0.0000 C   0  0  0  0  0  0
   -0.7467    2.0888    1.2200 C   0  0  0  0  0  0
   -1.2476    3.4055    1.2197 C   0  0  0  0  0  0
    0.0480    0.0135   -0.0000 C   0  0  0  0  0  0
    1.5026   -0.0265   -0.0000 N   0  0  0  0  0  0
    2.1984   -1.2466   -0.0000 C   0  0  0  0  0  0
    3.6179   -1.2747   -0.0000 C   0  0  0  0  0  0
    4.4080   -0.1016   -0.0000 C   0  0  0  0  0  0
    5.8118   -0.1963   -0.0000 C   0  0  0  0  0  0
    6.4311   -1.4590    0.0000 C   0  0  0  0  0  0
    5.6470   -2.6281    0.0000 C   0  0  0  0  0  0
    4.2380   -2.5564    0.0000 C   0  0  0  0  0  0
    3.4889   -3.6817    0.0000 N   0  0  0  0  0  0
    2.1628   -3.5420   -0.0000 C   0  0  0  0  0  0
    1.4822   -2.3957   -0.0000 N   0  3  0  0  0  0
   -1.8803    5.0741   -0.0000 H   0  0  0  0  0  0
   -1.4390    3.9106   -2.1551 H   0  0  0  0  0  0
   -0.5535    1.5890   -2.1579 H   0  0  0  0  0  0
   -0.5535    1.5890    2.1579 H   0  0  0  0  0  0
   -1.4390    3.9106    2.1551 H   0  0  0  0  0  0
   -0.3036   -0.5154    0.8981 H   0  0  0  0  0  0
   -0.3036   -0.5154   -0.8982 H   0  0  0  0  0  0
    2.0785    0.9107   -0.0000 H   0  0  0  0  0  0
    3.9520    0.8772   -0.0001 H   0  0  0  0  0  0
    6.4139    0.7005   -0.0000 H   0  0  0  0  0  0
    7.5088   -1.5314    0.0000 H   0  0  0  0  0  0
    6.1338   -3.5925    0.0001 H   0  0  0  0  0  0
    1.5799   -4.4510   -0.0000 H   0  0  0  0  0  0
    0.3828   -2.3585   -0.0000 H   0  0  0  0  0  0
  1  6  1  0  0  0
  1  2  2  0  0  0
  1 19  1  0  0  0
  2  3  1  0  0  0
  2 20  1  0  0  0
  3  4  2  0  0  0
  3 21  1  0  0  0
  4  5  1  0  0  0
  4  7  1  0  0  0
  5  6  2  0  0  0
  5 22  1  0  0  0
  6 23  1  0  0  0
  7  8  1  0  0  0
  7 24  1  0  0  0
  7 25  1  0  0  0
  8  9  1  0  0  0
  8 26  1  0  0  0
  9 18  1  0  0  0
  9 10  2  0  0  0
 10 15  1  0  0  0
 10 11  1  0  0  0
 11 12  2  0  0  0
 11 27  1  0  0  0
 12 13  1  0  0  0
 12 28  1  0  0  0
 13 14  2  0  0  0
 13 29  1  0  0  0
 14 15  1  0  0  0
 14 30  1  0  0  0
 15 16  2  0  0  0
 16 17  1  0  0  0
 17 18  2  0  0  0
 17 31  1  0  0  0
 18 32  1  0  0  0
M  CHG  1  18   1
M  END
> <s_m_source_file>
SM07.smi

> <i_m_source_file_index>
1

> <i_lp_mmshare_version>
40011

> <i_f3d_flags>
0

> <s_lp_Force_Field>
OPLS_2005

> <r_lp_Energy>
10.1904099344314

> <b_lp_Chiralities_Consistent>
1

> <s_lp_Variant>
SM07-1

> <s_epik_input>
W2NIXTFbY0hdW2NIXVtjSF1bY0hdYzFbQ0gyXVtOSF1jMm5bY0hdbmMoYzIzKVtjSF1bY0hdW2NIXVtjSF0z

> <s_epik_cmdline>
J2VwaWtfYXBwJywgJy1pbWFlJywgJ1NNMDcuMy45Lm1hZScsICctb21hZScsICdTTTA3LmVwaWsuMy45Lm1hZScsICctcCcsICcwLjAwMDA0NTM5OTkyOTgnLCAnLXBoJywgJzMuOSc=

> <r_lp_tautomer_probability>
0.00649199999999095

> <r_epik_Ionization_Penalty>
  0.4242

> <r_epik_Ionization_Penalty_Charging>
  0.4242

> <r_epik_Ionization_Penalty_Neutral>
  0.0000

> <r_epik_State_Penalty>
  2.9643

> <r_epik_Charging_Adjusted_Penalty>
3.38841425497758

> <i_epik_Tot_Q>
1

> <i_epik_Tot_abs_Q>
1

$$$$
