SM22
                    3D
 Structure written by MMmdl.
 17 18  0  0  1  0            999 V2000
   -2.0142   -3.6799   -0.0000 C   0  0  0  0  0  0
   -2.7614   -2.4892   -0.0000 C   0  0  0  0  0  0
   -2.0851   -1.2470   -0.0000 C   0  0  0  0  0  0
   -2.7986   -0.0235   -0.0000 C   0  0  0  0  0  0
   -2.0967    1.1943   -0.0000 C   0  0  0  0  0  0
   -0.6923    1.2059    0.0000 C   0  0  0  0  0  0
    0.0224   -0.0094   -0.0000 C   0  0  0  0  0  0
   -0.6586   -1.2513   -0.0000 C   0  0  0  0  0  0
    0.0461   -2.4099   -0.0000 N   0  0  0  0  0  0
   -0.6126   -3.5858   -0.0000 C   0  0  0  0  0  0
    1.3900    0.0177    0.0000 O   0  5  0  0  0  0
    0.3091    3.0452    0.0000 I   0  0  0  0  0  0
   -4.8941    0.0596   -0.0000 I   0  0  0  0  0  0
   -2.5043   -4.6425   -0.0000 H   0  0  0  0  0  0
   -3.8384   -2.5520   -0.0000 H   0  0  0  0  0  0
   -2.6402    2.1276   -0.0000 H   0  0  0  0  0  0
   -0.0034   -4.4775   -0.0000 H   0  0  0  0  0  0
  1 10  1  0  0  0
  1  2  2  0  0  0
  1 14  1  0  0  0
  2  3  1  0  0  0
  2 15  1  0  0  0
  3  8  2  0  0  0
  3  4  1  0  0  0
  4  5  2  0  0  0
  4 13  1  0  0  0
  5  6  1  0  0  0
  5 16  1  0  0  0
  6  7  2  0  0  0
  6 12  1  0  0  0
  7  8  1  0  0  0
  7 11  1  0  0  0
  8  9  1  0  0  0
  9 10  2  0  0  0
 10 17  1  0  0  0
M  CHG  1  11  -1
M  END
> <s_m_source_file>
SM22.smi

> <i_m_source_file_index>
1

> <i_lp_mmshare_version>
40011

> <i_f3d_flags>
0

> <s_lp_Force_Field>
OPLS_2005

> <r_lp_Energy>
9.63827903138279

> <b_lp_Chiralities_Consistent>
1

> <s_lp_Variant>
SM22-1

> <s_epik_input>
W2NIXTFbY0hdW2NIXW5jKGMxMiljKFtPSF0pYyhJKVtjSF1jMkk=

> <s_epik_cmdline>
J2VwaWtfYXBwJywgJy1pbWFlJywgJ1NNMjIuOS4xLm1hZScsICctb21hZScsICdTTTIyLmVwaWsuOS4xLm1hZScsICctcCcsICcwLjAwMDA0NTM5OTkyOTgnLCAnLXBoJywgJzkuMSc=

> <r_epik_Ionization_Penalty>
  0.0029

> <r_epik_Ionization_Penalty_Charging>
  0.0029

> <r_epik_Ionization_Penalty_Neutral>
  0.0000

> <r_epik_State_Penalty>
  0.0020

> <r_epik_Charging_Adjusted_Penalty>
0.00497134734482729

> <i_epik_Tot_Q>
-1

> <i_epik_Tot_abs_Q>
1

$$$$
SM22
                    3D
 Structure written by MMmdl.
 18 19  0  0  1  0            999 V2000
   -2.0142   -3.6799   -0.0000 C   0  0  0  0  0  0
   -2.7614   -2.4892   -0.0000 C   0  0  0  0  0  0
   -2.0851   -1.2470   -0.0000 C   0  0  0  0  0  0
   -2.7986   -0.0235   -0.0000 C   0  0  0  0  0  0
   -2.0967    1.1943   -0.0000 C   0  0  0  0  0  0
   -0.6923    1.2059    0.0000 C   0  0  0  0  0  0
    0.0224   -0.0094   -0.0000 C   0  0  0  0  0  0
   -0.6586   -1.2513   -0.0000 C   0  0  0  0  0  0
    0.0461   -2.4099   -0.0000 N   0  0  0  0  0  0
   -0.6126   -3.5858   -0.0000 C   0  0  0  0  0  0
    1.3900    0.0177    0.0000 O   0  0  0  0  0  0
    0.3091    3.0452    0.0000 I   0  0  0  0  0  0
   -4.8941    0.0596   -0.0000 I   0  0  0  0  0  0
   -2.5043   -4.6425   -0.0000 H   0  0  0  0  0  0
   -3.8384   -2.5520   -0.0000 H   0  0  0  0  0  0
   -2.6402    2.1276   -0.0000 H   0  0  0  0  0  0
   -0.0034   -4.4775   -0.0000 H   0  0  0  0  0  0
    1.9211    0.9810    0.0000 H   0  0  0  0  0  0
  1 10  1  0  0  0
  1  2  2  0  0  0
  1 14  1  0  0  0
  2  3  1  0  0  0
  2 15  1  0  0  0
  3  8  2  0  0  0
  3  4  1  0  0  0
  4  5  2  0  0  0
  4 13  1  0  0  0
  5  6  1  0  0  0
  5 16  1  0  0  0
  6  7  2  0  0  0
  6 12  1  0  0  0
  7  8  1  0  0  0
  7 11  1  0  0  0
  8  9  1  0  0  0
  9 10  2  0  0  0
 10 17  1  0  0  0
 11 18  1  0  0  0
M  END
> <s_m_source_file>
SM22.smi

> <i_m_source_file_index>
1

> <i_lp_mmshare_version>
40011

> <i_f3d_flags>
0

> <s_lp_Force_Field>
OPLS_2005

> <r_lp_Energy>
9.63827903138279

> <b_lp_Chiralities_Consistent>
1

> <s_lp_Variant>
SM22-1

> <s_epik_input>
W2NIXTFbY0hdW2NIXW5jKGMxMiljKFtPSF0pYyhJKVtjSF1jMkk=

> <s_epik_cmdline>
J2VwaWtfYXBwJywgJy1pbWFlJywgJ1NNMjIuOS4xLm1hZScsICctb21hZScsICdTTTIyLmVwaWsuOS4xLm1hZScsICctcCcsICcwLjAwMDA0NTM5OTkyOTgnLCAnLXBoJywgJzkuMSc=

> <r_epik_Ionization_Penalty>
  3.1486

> <r_epik_Ionization_Penalty_Charging>
  0.0000

> <r_epik_Ionization_Penalty_Neutral>
  3.1486

> <r_epik_State_Penalty>
  3.3588

> <r_epik_Charging_Adjusted_Penalty>
3.35875734444985

> <i_epik_Tot_Q>
0

> <i_epik_Tot_abs_Q>
0

$$$$
