SM12
                    3D
 Structure written by MMmdl.
 29 31  0  0  1  0            999 V2000
   -0.7803   -3.6570    0.5907 C   0  0  0  0  0  0
   -2.1817   -3.6250    0.7033 C   0  0  0  0  0  0
   -2.8855   -2.4431    0.4050 C   0  0  0  0  0  0
   -2.2050   -1.2787   -0.0088 C   0  0  0  0  0  0
   -0.7858   -1.3176   -0.1211 C   0  0  0  0  0  0
   -0.0815   -2.5072    0.1793 C   0  0  0  0  0  0
   -0.1389   -0.1255   -0.5435 C   0  0  0  0  0  0
   -0.8563    0.9907   -0.8089 N   0  0  0  0  0  0
   -2.1803    0.9192   -0.6732 C   0  0  0  0  0  0
   -2.8856   -0.1459   -0.2922 N   0  3  0  0  0  0
    1.2627   -0.0745   -0.6563 N   0  0  0  0  0  0
    2.0826    0.9178   -1.2178 C   0  0  0  0  0  0
    3.3833    1.0761   -0.6946 C   0  0  0  0  0  0
    4.2580    2.0424   -1.2282 C   0  0  0  0  0  0
    3.8424    2.8530   -2.3009 C   0  0  0  0  0  0
    2.5540    2.6901   -2.8439 C   0  0  0  0  0  0
    1.6794    1.7237   -2.3090 C   0  0  0  0  0  0
    2.0480    3.6696   -4.1712 Cl  0  0  0  0  0  0
   -0.2407   -4.5645    0.8194 H   0  0  0  0  0  0
   -2.7183   -4.5076    1.0188 H   0  0  0  0  0  0
   -3.9620   -2.4310    0.4956 H   0  0  0  0  0  0
    0.9942   -2.5542    0.0973 H   0  0  0  0  0  0
   -2.7383    1.8175   -0.8918 H   0  0  0  0  0  0
    1.8761   -0.9012   -0.2686 H   0  0  0  0  0  0
    3.7155    0.4588    0.1276 H   0  0  0  0  0  0
    5.2487    2.1606   -0.8148 H   0  0  0  0  0  0
    4.5145    3.5931   -2.7100 H   0  0  0  0  0  0
    0.7056    1.6014   -2.7586 H   0  0  0  0  0  0
   -3.9819   -0.1265   -0.2047 H   0  0  0  0  0  0
  1  6  1  0  0  0
  1  2  2  0  0  0
  1 19  1  0  0  0
  2  3  1  0  0  0
  2 20  1  0  0  0
  3  4  2  0  0  0
  3 21  1  0  0  0
  4 10  1  0  0  0
  4  5  1  0  0  0
  5  6  2  0  0  0
  5  7  1  0  0  0
  6 22  1  0  0  0
  7  8  2  0  0  0
  7 11  1  0  0  0
  8  9  1  0  0  0
  9 10  2  0  0  0
  9 23  1  0  0  0
 10 29  1  0  0  0
 11 12  1  0  0  0
 11 24  1  0  0  0
 12 17  1  0  0  0
 12 13  2  0  0  0
 13 14  1  0  0  0
 13 25  1  0  0  0
 14 15  2  0  0  0
 14 26  1  0  0  0
 15 16  1  0  0  0
 15 27  1  0  0  0
 16 17  2  0  0  0
 16 18  1  0  0  0
 17 28  1  0  0  0
M  CHG  1  10   1
M  END
> <s_m_source_file>
SM12.smi

> <i_m_source_file_index>
1

> <i_lp_mmshare_version>
40011

> <i_f3d_flags>
0

> <s_lp_Force_Field>
OPLS_2005

> <r_lp_Energy>
13.9308607138241

> <b_lp_Chiralities_Consistent>
1

> <s_lp_Variant>
SM12-1

> <s_epik_input>
W2NIXTFbY0hdW2NIXVtjSF1jKGMxMiljKG5bY0hdbjIpW05IXWMzW2NIXVtjSF1bY0hdYyhDbClbY0hdMw==

> <s_epik_cmdline>
J2VwaWtfYXBwJywgJy1pbWFlJywgJ1NNMTIuMi44Lm1hZScsICctb21hZScsICdTTTEyLmVwaWsuMi44Lm1hZScsICctcCcsICcwLjAwMDA0NTM5OTkyOTgnLCAnLXBoJywgJzIuOCc=

> <r_lp_tautomer_probability>
0.993507999998615

> <r_epik_Ionization_Penalty>
  0.0325

> <r_epik_Ionization_Penalty_Charging>
  0.0325

> <r_epik_Ionization_Penalty_Neutral>
  0.0000

> <r_epik_State_Penalty>
  0.0175

> <r_epik_Charging_Adjusted_Penalty>
0.0499666058670694

> <i_epik_Tot_Q>
1

> <i_epik_Tot_abs_Q>
1

$$$$
SM12
                    3D
 Structure written by MMmdl.
 29 31  0  0  1  0            999 V2000
   -0.7803   -3.6570    0.5907 C   0  0  0  0  0  0
   -2.1817   -3.6250    0.7033 C   0  0  0  0  0  0
   -2.8855   -2.4431    0.4050 C   0  0  0  0  0  0
   -2.2050   -1.2787   -0.0088 C   0  0  0  0  0  0
   -0.7858   -1.3176   -0.1211 C   0  0  0  0  0  0
   -0.0815   -2.5072    0.1793 C   0  0  0  0  0  0
   -0.1389   -0.1255   -0.5435 C   0  0  0  0  0  0
   -0.8563    0.9907   -0.8089 N   0  3  0  0  0  0
   -2.1803    0.9192   -0.6732 C   0  0  0  0  0  0
   -2.8856   -0.1459   -0.2922 N   0  0  0  0  0  0
    1.2627   -0.0745   -0.6563 N   0  0  0  0  0  0
    2.0826    0.9178   -1.2178 C   0  0  0  0  0  0
    3.3833    1.0761   -0.6946 C   0  0  0  0  0  0
    4.2580    2.0424   -1.2282 C   0  0  0  0  0  0
    3.8424    2.8530   -2.3009 C   0  0  0  0  0  0
    2.5540    2.6901   -2.8439 C   0  0  0  0  0  0
    1.6794    1.7237   -2.3090 C   0  0  0  0  0  0
    2.0480    3.6696   -4.1712 Cl  0  0  0  0  0  0
   -0.2407   -4.5645    0.8194 H   0  0  0  0  0  0
   -2.7183   -4.5076    1.0188 H   0  0  0  0  0  0
   -3.9620   -2.4310    0.4956 H   0  0  0  0  0  0
    0.9942   -2.5542    0.0973 H   0  0  0  0  0  0
   -2.7383    1.8175   -0.8918 H   0  0  0  0  0  0
    1.8761   -0.9012   -0.2686 H   0  0  0  0  0  0
    3.7155    0.4588    0.1276 H   0  0  0  0  0  0
    5.2487    2.1606   -0.8148 H   0  0  0  0  0  0
    4.5145    3.5931   -2.7100 H   0  0  0  0  0  0
    0.7056    1.6014   -2.7586 H   0  0  0  0  0  0
   -0.3441    1.9119   -1.1236 H   0  0  0  0  0  0
  1  6  1  0  0  0
  1  2  2  0  0  0
  1 19  1  0  0  0
  2  3  1  0  0  0
  2 20  1  0  0  0
  3  4  2  0  0  0
  3 21  1  0  0  0
  4 10  1  0  0  0
  4  5  1  0  0  0
  5  6  2  0  0  0
  5  7  1  0  0  0
  6 22  1  0  0  0
  7  8  2  0  0  0
  7 11  1  0  0  0
  8  9  1  0  0  0
  8 29  1  0  0  0
  9 10  2  0  0  0
  9 23  1  0  0  0
 11 12  1  0  0  0
 11 24  1  0  0  0
 12 17  1  0  0  0
 12 13  2  0  0  0
 13 14  1  0  0  0
 13 25  1  0  0  0
 14 15  2  0  0  0
 14 26  1  0  0  0
 15 16  1  0  0  0
 15 27  1  0  0  0
 16 17  2  0  0  0
 16 18  1  0  0  0
 17 28  1  0  0  0
M  CHG  1   8   1
M  END
> <s_m_source_file>
SM12.smi

> <i_m_source_file_index>
1

> <i_lp_mmshare_version>
40011

> <i_f3d_flags>
0

> <s_lp_Force_Field>
OPLS_2005

> <r_lp_Energy>
13.9308607138241

> <b_lp_Chiralities_Consistent>
1

> <s_lp_Variant>
SM12-1

> <s_epik_input>
W2NIXTFbY0hdW2NIXVtjSF1jKGMxMiljKG5bY0hdbjIpW05IXWMzW2NIXVtjSF1bY0hdYyhDbClbY0hdMw==

> <s_epik_cmdline>
J2VwaWtfYXBwJywgJy1pbWFlJywgJ1NNMTIuMi44Lm1hZScsICctb21hZScsICdTTTEyLmVwaWsuMi44Lm1hZScsICctcCcsICcwLjAwMDA0NTM5OTkyOTgnLCAnLXBoJywgJzIuOCc=

> <r_lp_tautomer_probability>
0.00649199999999095

> <r_epik_Ionization_Penalty>
  0.1056

> <r_epik_Ionization_Penalty_Charging>
  0.1055

> <r_epik_Ionization_Penalty_Neutral>
  0.0000

> <r_epik_State_Penalty>
  2.3997

> <r_epik_Charging_Adjusted_Penalty>
2.50521651131242

> <i_epik_Tot_Q>
1

> <i_epik_Tot_abs_Q>
1

$$$$
SM12
                    3D
 Structure written by MMmdl.
 28 30  0  0  1  0            999 V2000
   -0.7803   -3.6570    0.5907 C   0  0  0  0  0  0
   -2.1817   -3.6250    0.7033 C   0  0  0  0  0  0
   -2.8855   -2.4431    0.4050 C   0  0  0  0  0  0
   -2.2050   -1.2787   -0.0088 C   0  0  0  0  0  0
   -0.7858   -1.3176   -0.1211 C   0  0  0  0  0  0
   -0.0815   -2.5072    0.1793 C   0  0  0  0  0  0
   -0.1389   -0.1255   -0.5435 C   0  0  0  0  0  0
   -0.8563    0.9907   -0.8089 N   0  0  0  0  0  0
   -2.1803    0.9192   -0.6732 C   0  0  0  0  0  0
   -2.8856   -0.1459   -0.2922 N   0  0  0  0  0  0
    1.2627   -0.0745   -0.6563 N   0  0  0  0  0  0
    2.0826    0.9178   -1.2178 C   0  0  0  0  0  0
    3.3833    1.0761   -0.6946 C   0  0  0  0  0  0
    4.2580    2.0424   -1.2282 C   0  0  0  0  0  0
    3.8424    2.8530   -2.3009 C   0  0  0  0  0  0
    2.5540    2.6901   -2.8439 C   0  0  0  0  0  0
    1.6794    1.7237   -2.3090 C   0  0  0  0  0  0
    2.0480    3.6696   -4.1712 Cl  0  0  0  0  0  0
   -0.2407   -4.5645    0.8194 H   0  0  0  0  0  0
   -2.7183   -4.5076    1.0188 H   0  0  0  0  0  0
   -3.9620   -2.4310    0.4956 H   0  0  0  0  0  0
    0.9942   -2.5542    0.0973 H   0  0  0  0  0  0
   -2.7383    1.8175   -0.8918 H   0  0  0  0  0  0
    1.8761   -0.9012   -0.2686 H   0  0  0  0  0  0
    3.7155    0.4588    0.1276 H   0  0  0  0  0  0
    5.2487    2.1606   -0.8148 H   0  0  0  0  0  0
    4.5145    3.5931   -2.7100 H   0  0  0  0  0  0
    0.7056    1.6014   -2.7586 H   0  0  0  0  0  0
  1  6  1  0  0  0
  1  2  2  0  0  0
  1 19  1  0  0  0
  2  3  1  0  0  0
  2 20  1  0  0  0
  3  4  2  0  0  0
  3 21  1  0  0  0
  4 10  1  0  0  0
  4  5  1  0  0  0
  5  6  2  0  0  0
  5  7  1  0  0  0
  6 22  1  0  0  0
  7  8  2  0  0  0
  7 11  1  0  0  0
  8  9  1  0  0  0
  9 10  2  0  0  0
  9 23  1  0  0  0
 11 12  1  0  0  0
 11 24  1  0  0  0
 12 17  1  0  0  0
 12 13  2  0  0  0
 13 14  1  0  0  0
 13 25  1  0  0  0
 14 15  2  0  0  0
 14 26  1  0  0  0
 15 16  1  0  0  0
 15 27  1  0  0  0
 16 17  2  0  0  0
 16 18  1  0  0  0
 17 28  1  0  0  0
M  END
> <s_m_source_file>
SM12.smi

> <i_m_source_file_index>
1

> <i_lp_mmshare_version>
40011

> <i_f3d_flags>
0

> <s_lp_Force_Field>
OPLS_2005

> <r_lp_Energy>
13.9308607138241

> <b_lp_Chiralities_Consistent>
1

> <s_lp_Variant>
SM12-1

> <s_epik_input>
W2NIXTFbY0hdW2NIXVtjSF1jKGMxMiljKG5bY0hdbjIpW05IXWMzW2NIXVtjSF1bY0hdYyhDbClbY0hdMw==

> <s_epik_cmdline>
J2VwaWtfYXBwJywgJy1pbWFlJywgJ1NNMTIuMi44Lm1hZScsICctb21hZScsICdTTTEyLmVwaWsuMi44Lm1hZScsICctcCcsICcwLjAwMDA0NTM5OTkyOTgnLCAnLXBoJywgJzIuOCc=

> <r_lp_tautomer_probability>
0.999978000241998

> <r_epik_Ionization_Penalty>
  2.8112

> <r_epik_Ionization_Penalty_Charging>
  0.0000

> <r_epik_Ionization_Penalty_Neutral>
  2.8112

> <r_epik_State_Penalty>
  2.6349

> <r_epik_Charging_Adjusted_Penalty>
2.63488515604356

> <i_epik_Tot_Q>
0

> <i_epik_Tot_abs_Q>
0

$$$$
