SM15
                    3D
 Structure written by MMmdl.
 25 27  0  0  1  0            999 V2000
   -3.1978    2.6512    0.0677 C   0  0  0  0  0  0
   -1.9349    3.2710    0.1674 C   0  0  0  0  0  0
   -0.7616    2.4926    0.1423 C   0  0  0  0  0  0
   -0.8696    1.0951    0.0161 C   0  0  0  0  0  0
   -2.1384    0.4455   -0.0817 C   0  0  0  0  0  0
   -3.3004    1.2496   -0.0555 C   0  0  0  0  0  0
   -2.0015   -0.9316   -0.1926 N   0  0  0  0  0  0
   -0.6792   -1.0816   -0.1625 C   0  0  0  0  0  0
    0.0420    0.0499   -0.0421 N   0  0  0  0  0  0
    1.4549    0.0154   -0.0189 C   0  0  0  0  0  0
    2.1440   -0.9471    0.7531 C   0  0  0  0  0  0
    3.5522   -0.9667    0.7662 C   0  0  0  0  0  0
    4.2786   -0.0251    0.0111 C   0  0  0  0  0  0
    3.5955    0.9388   -0.7561 C   0  0  0  0  0  0
    2.1875    0.9596   -0.7701 C   0  0  0  0  0  0
    5.6426   -0.0477    0.0238 O   0  5  0  0  0  0
   -4.0939    3.2541    0.0866 H   0  0  0  0  0  0
   -1.8676    4.3447    0.2634 H   0  0  0  0  0  0
    0.2071    2.9631    0.2215 H   0  0  0  0  0  0
   -4.2732    0.7867   -0.1308 H   0  0  0  0  0  0
   -0.2243   -2.0585   -0.2419 H   0  0  0  0  0  0
    1.5999   -1.6710    1.3422 H   0  0  0  0  0  0
    4.0734   -1.7052    1.3578 H   0  0  0  0  0  0
    4.1479    1.6634   -1.3364 H   0  0  0  0  0  0
    1.6735    1.6993   -1.3663 H   0  0  0  0  0  0
  1  6  1  0  0  0
  1  2  2  0  0  0
  1 17  1  0  0  0
  2  3  1  0  0  0
  2 18  1  0  0  0
  3  4  2  0  0  0
  3 19  1  0  0  0
  4  9  1  0  0  0
  4  5  1  0  0  0
  5  6  2  0  0  0
  5  7  1  0  0  0
  6 20  1  0  0  0
  7  8  2  0  0  0
  8  9  1  0  0  0
  8 21  1  0  0  0
  9 10  1  0  0  0
 10 15  1  0  0  0
 10 11  2  0  0  0
 11 12  1  0  0  0
 11 22  1  0  0  0
 12 13  2  0  0  0
 12 23  1  0  0  0
 13 14  1  0  0  0
 13 16  1  0  0  0
 14 15  2  0  0  0
 14 24  1  0  0  0
 15 25  1  0  0  0
M  CHG  1  16  -1
M  END
> <s_m_source_file>
SM15.smi

> <i_m_source_file_index>
1

> <i_lp_mmshare_version>
40011

> <i_f3d_flags>
0

> <s_lp_Force_Field>
OPLS_2005

> <r_lp_Energy>
13.0854896669651

> <b_lp_Chiralities_Consistent>
1

> <s_lp_Variant>
SM15-1

> <s_epik_input>
W2NIXTFbY0hdW2NIXVtjSF1jKGMxMiluW2NIXW4yLWMzW2NIXVtjSF1jKFtPSF0pW2NIXVtjSF0z

> <s_epik_cmdline>
J2VwaWtfYXBwJywgJy1pbWFlJywgJ1NNMTUuOS4yLm1hZScsICctb21hZScsICdTTTE1LmVwaWsuOS4yLm1hZScsICctcCcsICcwLjAwMDA0NTM5OTkyOTgnLCAnLXBoJywgJzkuMic=

> <r_epik_Ionization_Penalty>
  0.1660

> <r_epik_Ionization_Penalty_Charging>
  0.1658

> <r_epik_Ionization_Penalty_Neutral>
  0.0002

> <r_epik_State_Penalty>
  0.1355

> <r_epik_Charging_Adjusted_Penalty>
0.301307196230125

> <i_epik_Tot_Q>
-1

> <i_epik_Tot_abs_Q>
1

$$$$
SM15
                    3D
 Structure written by MMmdl.
 26 28  0  0  1  0            999 V2000
   -3.1978    2.6512    0.0677 C   0  0  0  0  0  0
   -1.9349    3.2710    0.1674 C   0  0  0  0  0  0
   -0.7616    2.4926    0.1423 C   0  0  0  0  0  0
   -0.8696    1.0951    0.0161 C   0  0  0  0  0  0
   -2.1384    0.4455   -0.0817 C   0  0  0  0  0  0
   -3.3004    1.2496   -0.0555 C   0  0  0  0  0  0
   -2.0015   -0.9316   -0.1926 N   0  0  0  0  0  0
   -0.6792   -1.0816   -0.1625 C   0  0  0  0  0  0
    0.0420    0.0499   -0.0421 N   0  0  0  0  0  0
    1.4549    0.0154   -0.0189 C   0  0  0  0  0  0
    2.1440   -0.9471    0.7531 C   0  0  0  0  0  0
    3.5522   -0.9667    0.7662 C   0  0  0  0  0  0
    4.2786   -0.0251    0.0111 C   0  0  0  0  0  0
    3.5955    0.9388   -0.7561 C   0  0  0  0  0  0
    2.1875    0.9596   -0.7701 C   0  0  0  0  0  0
    5.6426   -0.0477    0.0238 O   0  0  0  0  0  0
   -4.0939    3.2541    0.0866 H   0  0  0  0  0  0
   -1.8676    4.3447    0.2634 H   0  0  0  0  0  0
    0.2071    2.9631    0.2215 H   0  0  0  0  0  0
   -4.2732    0.7867   -0.1308 H   0  0  0  0  0  0
   -0.2243   -2.0585   -0.2419 H   0  0  0  0  0  0
    1.5999   -1.6710    1.3422 H   0  0  0  0  0  0
    4.0734   -1.7052    1.3578 H   0  0  0  0  0  0
    4.1479    1.6634   -1.3364 H   0  0  0  0  0  0
    1.6735    1.6993   -1.3663 H   0  0  0  0  0  0
    6.1747   -0.8010    0.6233 H   0  0  0  0  0  0
  1  6  1  0  0  0
  1  2  2  0  0  0
  1 17  1  0  0  0
  2  3  1  0  0  0
  2 18  1  0  0  0
  3  4  2  0  0  0
  3 19  1  0  0  0
  4  9  1  0  0  0
  4  5  1  0  0  0
  5  6  2  0  0  0
  5  7  1  0  0  0
  6 20  1  0  0  0
  7  8  2  0  0  0
  8  9  1  0  0  0
  8 21  1  0  0  0
  9 10  1  0  0  0
 10 15  1  0  0  0
 10 11  2  0  0  0
 11 12  1  0  0  0
 11 22  1  0  0  0
 12 13  2  0  0  0
 12 23  1  0  0  0
 13 14  1  0  0  0
 13 16  1  0  0  0
 14 15  2  0  0  0
 14 24  1  0  0  0
 15 25  1  0  0  0
 16 26  1  0  0  0
M  END
> <s_m_source_file>
SM15.smi

> <i_m_source_file_index>
1

> <i_lp_mmshare_version>
40011

> <i_f3d_flags>
0

> <s_lp_Force_Field>
OPLS_2005

> <r_lp_Energy>
13.0854896669651

> <b_lp_Chiralities_Consistent>
1

> <s_lp_Variant>
SM15-1

> <s_epik_input>
W2NIXTFbY0hdW2NIXVtjSF1jKGMxMiluW2NIXW4yLWMzW2NIXVtjSF1jKFtPSF0pW2NIXVtjSF0z

> <s_epik_cmdline>
J2VwaWtfYXBwJywgJy1pbWFlJywgJ1NNMTUuOS4yLm1hZScsICctb21hZScsICdTTTE1LmVwaWsuOS4yLm1hZScsICctcCcsICcwLjAwMDA0NTM5OTkyOTgnLCAnLXBoJywgJzkuMic=

> <r_epik_Ionization_Penalty>
  0.8359

> <r_epik_Ionization_Penalty_Charging>
  0.0000

> <r_epik_Ionization_Penalty_Neutral>
  0.8359

> <r_epik_State_Penalty>
  0.9411

> <r_epik_Charging_Adjusted_Penalty>
0.941115144353636

> <i_epik_Tot_Q>
0

> <i_epik_Tot_abs_Q>
0

$$$$
SM15
                    3D
 Structure written by MMmdl.
 26 28  0  0  1  0            999 V2000
   -3.1978    2.6512    0.0677 C   0  0  0  0  0  0
   -1.9349    3.2710    0.1674 C   0  0  0  0  0  0
   -0.7616    2.4926    0.1423 C   0  0  0  0  0  0
   -0.8696    1.0951    0.0161 C   0  0  0  0  0  0
   -2.1384    0.4455   -0.0817 C   0  0  0  0  0  0
   -3.3004    1.2496   -0.0555 C   0  0  0  0  0  0
   -2.0015   -0.9316   -0.1926 N   0  3  0  0  0  0
   -0.6792   -1.0816   -0.1625 C   0  0  0  0  0  0
    0.0420    0.0499   -0.0421 N   0  0  0  0  0  0
    1.4549    0.0154   -0.0189 C   0  0  0  0  0  0
    2.1440   -0.9471    0.7531 C   0  0  0  0  0  0
    3.5522   -0.9667    0.7662 C   0  0  0  0  0  0
    4.2786   -0.0251    0.0111 C   0  0  0  0  0  0
    3.5955    0.9388   -0.7561 C   0  0  0  0  0  0
    2.1875    0.9596   -0.7701 C   0  0  0  0  0  0
    5.6426   -0.0477    0.0238 O   0  5  0  0  0  0
   -4.0939    3.2541    0.0866 H   0  0  0  0  0  0
   -1.8676    4.3447    0.2634 H   0  0  0  0  0  0
    0.2071    2.9631    0.2215 H   0  0  0  0  0  0
   -4.2732    0.7867   -0.1308 H   0  0  0  0  0  0
   -0.2243   -2.0585   -0.2419 H   0  0  0  0  0  0
    1.5999   -1.6710    1.3422 H   0  0  0  0  0  0
    4.0734   -1.7052    1.3578 H   0  0  0  0  0  0
    4.1479    1.6634   -1.3364 H   0  0  0  0  0  0
    1.6735    1.6993   -1.3663 H   0  0  0  0  0  0
   -2.8948   -1.5683   -0.2747 H   0  0  0  0  0  0
  1  6  1  0  0  0
  1  2  2  0  0  0
  1 17  1  0  0  0
  2  3  1  0  0  0
  2 18  1  0  0  0
  3  4  2  0  0  0
  3 19  1  0  0  0
  4  9  1  0  0  0
  4  5  1  0  0  0
  5  6  2  0  0  0
  5  7  1  0  0  0
  6 20  1  0  0  0
  7  8  2  0  0  0
  7 26  1  0  0  0
  8  9  1  0  0  0
  8 21  1  0  0  0
  9 10  1  0  0  0
 10 15  1  0  0  0
 10 11  2  0  0  0
 11 12  1  0  0  0
 11 22  1  0  0  0
 12 13  2  0  0  0
 12 23  1  0  0  0
 13 14  1  0  0  0
 13 16  1  0  0  0
 14 15  2  0  0  0
 14 24  1  0  0  0
 15 25  1  0  0  0
M  CHG  2   7   1  16  -1
M  END
> <s_m_source_file>
SM15.smi

> <i_m_source_file_index>
1

> <i_lp_mmshare_version>
40011

> <i_f3d_flags>
0

> <s_lp_Force_Field>
OPLS_2005

> <r_lp_Energy>
13.0854896669651

> <b_lp_Chiralities_Consistent>
1

> <s_lp_Variant>
SM15-1

> <s_epik_input>
W2NIXTFbY0hdW2NIXVtjSF1jKGMxMiluW2NIXW4yLWMzW2NIXVtjSF1jKFtPSF0pW2NIXVtjSF0z

> <s_epik_cmdline>
J2VwaWtfYXBwJywgJy1pbWFlJywgJ1NNMTUuOS4yLm1hZScsICctb21hZScsICdTTTE1LmVwaWsuOS4yLm1hZScsICctcCcsICcwLjAwMDA0NTM5OTkyOTgnLCAnLXBoJywgJzkuMic=

> <r_epik_Ionization_Penalty>
  4.8376

> <r_epik_Ionization_Penalty_Charging>
  4.8376

> <r_epik_Ionization_Penalty_Neutral>
  0.0000

> <r_epik_State_Penalty>
  5.0817

> <r_epik_Charging_Adjusted_Penalty>
9.91924042477036

> <i_epik_Tot_Q>
0

> <i_epik_Tot_abs_Q>
2

$$$$
