SM18
                    3D
 Structure written by MMmdl.
 46 49  0  0  1  0            999 V2000
   -6.7748   -1.4928    1.7359 C   0  0  0  0  0  0
   -5.8267   -1.9872    2.6516 C   0  0  0  0  0  0
   -4.4800   -2.1332    2.2658 C   0  0  0  0  0  0
   -4.0688   -1.7859    0.9622 C   0  0  0  0  0  0
   -5.0296   -1.2884    0.0416 C   0  0  0  0  0  0
   -6.3787   -1.1433    0.4308 C   0  0  0  0  0  0
   -4.5674   -0.9263   -1.3434 C   0  0  0  0  0  0
   -5.3395   -0.4892   -2.1953 O   0  0  0  0  0  0
   -3.2549   -1.1197   -1.5759 N   0  0  0  0  0  0
   -2.3766   -1.6140   -0.6033 C   0  0  0  0  0  0
   -2.7157   -1.9414    0.6072 N   0  0  0  0  0  0
   -0.9559   -1.7294   -1.1241 C   0  0  0  0  0  0
   -0.2792   -0.3574   -1.3213 C   0  0  0  0  0  0
    1.1497   -0.4717   -1.8604 C   0  0  0  0  0  0
    1.4142   -1.3148   -2.7179 O   0  0  0  0  0  0
    2.0403    0.3945   -1.3418 N   0  0  0  0  0  0
    3.4140    0.5442   -1.6672 C   0  0  0  0  0  0
    4.2389    1.4166   -1.0778 N   0  0  0  0  0  0
    5.5421    1.3196   -1.5707 C   0  0  0  0  0  0
    5.6944    0.3793   -2.5611 C   0  0  0  0  0  0
    4.1859   -0.4282   -2.9096 S   0  0  0  0  0  0
    6.9461    0.0290   -3.2960 C   0  0  0  0  0  0
    7.2550    1.0266   -4.3959 C   0  0  0  0  0  0
    8.1457    2.0943   -4.1567 C   0  0  0  0  0  0
    8.4270    3.0229   -5.1776 C   0  0  0  0  0  0
    7.8183    2.8884   -6.4406 C   0  0  0  0  0  0
    6.9275    1.8241   -6.6825 C   0  0  0  0  0  0
    6.6465    0.8949   -5.6619 C   0  0  0  0  0  0
    6.3401    1.6930   -7.8956 F   0  0  0  0  0  0
    8.0900    3.7825   -7.4208 F   0  0  0  0  0  0
   -2.8803   -0.8714   -2.5800 H   0  0  0  0  0  0
   -7.7301   -1.3900    2.0129 H   0  0  0  0  0  0
   -6.1111   -2.2349    3.5777 H   0  0  0  0  0  0
   -3.8084   -2.4850    2.9178 H   0  0  0  0  0  0
   -7.0529   -0.7926   -0.2192 H   0  0  0  0  0  0
   -0.9925   -2.2618   -2.0860 H   0  0  0  0  0  0
   -0.3789   -2.3220   -0.3989 H   0  0  0  0  0  0
   -0.8620    0.2391   -2.0387 H   0  0  0  0  0  0
   -0.2332    0.1706   -0.3575 H   0  0  0  0  0  0
    6.3281    1.8587   -1.2679 H   0  0  0  0  0  0
    6.8193   -0.9721   -3.7340 H   0  0  0  0  0  0
    7.7756    0.0108   -2.5738 H   0  0  0  0  0  0
    8.6139    2.2054   -3.1896 H   0  0  0  0  0  0
    9.1095    3.8390   -4.9914 H   0  0  0  0  0  0
    5.9610    0.0819   -5.8520 H   0  0  0  0  0  0
    1.5832    1.0382   -0.5758 H   0  0  0  0  0  0
  1  6  2  0  0  0
  1 32  1  0  0  0
  1  2  1  0  0  0
  2 33  1  0  0  0
  2  3  2  0  0  0
  3 34  1  0  0  0
  3  4  1  0  0  0
  4  5  2  0  0  0
  4 11  1  0  0  0
  5  7  1  0  0  0
  5  6  1  0  0  0
  6 35  1  0  0  0
  7  8  2  0  0  0
  7  9  1  0  0  0
  9 10  1  0  0  0
  9 31  1  0  0  0
 10 11  2  0  0  0
 10 12  1  0  0  0
 12 13  1  0  0  0
 12 36  1  0  0  0
 12 37  1  0  0  0
 13 38  1  0  0  0
 13 39  1  0  0  0
 13 14  1  0  0  0
 14 16  1  0  0  0
 14 15  2  0  0  0
 16 17  1  0  0  0
 16 46  1  0  0  0
 17 21  1  0  0  0
 17 18  2  0  0  0
 18 19  1  0  0  0
 19 40  1  0  0  0
 19 20  2  0  0  0
 20 22  1  0  0  0
 20 21  1  0  0  0
 22 23  1  0  0  0
 22 41  1  0  0  0
 22 42  1  0  0  0
 23 28  1  0  0  0
 23 24  2  0  0  0
 24 25  1  0  0  0
 24 43  1  0  0  0
 25 26  2  0  0  0
 25 44  1  0  0  0
 26 27  1  0  0  0
 26 30  1  0  0  0
 27 28  2  0  0  0
 27 29  1  0  0  0
 28 45  1  0  0  0
M  END
> <s_m_source_file>
SM18.smi

> <i_m_source_file_index>
1

> <i_lp_mmshare_version>
40011

> <i_f3d_flags>
0

> <s_lp_Force_Field>
OPLS_2005

> <r_lp_Energy>
17.4490160392642

> <b_lp_Chiralities_Consistent>
1

> <s_lp_Variant>
SM18-1

> <s_epik_input>
W2NIXTFbY0hdW2NIXVtjSF1jKGMxMiljKD1PKVtuSF1jKG4yKVtDSDJdW0NIMl1DKD1PKVtOSF1jM25bY0hdYyhzMylbQ0gyXWM0W2NIXVtjSF1jKEYpYyhGKVtjSF00

> <s_epik_cmdline>
J2VwaWtfYXBwJywgJy1pbWFlJywgJ1NNMTguMy4zLm1hZScsICctb21hZScsICdTTTE4LmVwaWsuMy4zLm1hZScsICctcCcsICcwLjAwMDA0NTM5OTkyOTgnLCAnLXBoJywgJzMuMyc=

> <r_lp_tautomer_probability>
0.883054493714579

> <r_epik_Ionization_Penalty>
  0.0901

> <r_epik_Ionization_Penalty_Charging>
  0.0000

> <r_epik_Ionization_Penalty_Neutral>
  0.0901

> <r_epik_State_Penalty>
  0.0691

> <r_epik_Charging_Adjusted_Penalty>
0.0691379130154108

> <i_epik_Tot_Q>
0

> <i_epik_Tot_abs_Q>
0

$$$$
SM18
                    3D
 Structure written by MMmdl.
 46 49  0  0  1  0            999 V2000
   -6.7748   -1.4928    1.7359 C   0  0  0  0  0  0
   -5.8267   -1.9872    2.6516 C   0  0  0  0  0  0
   -4.4800   -2.1332    2.2658 C   0  0  0  0  0  0
   -4.0688   -1.7859    0.9622 C   0  0  0  0  0  0
   -5.0296   -1.2884    0.0416 C   0  0  0  0  0  0
   -6.3787   -1.1433    0.4308 C   0  0  0  0  0  0
   -4.5674   -0.9263   -1.3434 C   0  0  0  0  0  0
   -5.3395   -0.4892   -2.1953 O   0  0  0  0  0  0
   -3.2549   -1.1197   -1.5759 N   0  0  0  0  0  0
   -2.3766   -1.6140   -0.6033 C   0  0  0  0  0  0
   -2.7157   -1.9414    0.6072 N   0  0  0  0  0  0
   -0.9559   -1.7294   -1.1241 C   0  0  0  0  0  0
   -0.2792   -0.3574   -1.3213 C   0  0  0  0  0  0
    1.1497   -0.4717   -1.8604 C   0  0  0  0  0  0
    1.4142   -1.3148   -2.7179 O   0  0  0  0  0  0
    2.0403    0.3945   -1.3418 N   0  0  0  0  0  0
    3.4140    0.5442   -1.6672 C   0  0  0  0  0  0
    4.2389    1.4166   -1.0778 N   0  0  0  0  0  0
    5.5421    1.3196   -1.5707 C   0  0  0  0  0  0
    5.6944    0.3793   -2.5611 C   0  0  0  0  0  0
    4.1859   -0.4282   -2.9096 S   0  0  0  0  0  0
    6.9461    0.0290   -3.2960 C   0  0  0  0  0  0
    7.2550    1.0266   -4.3959 C   0  0  0  0  0  0
    8.1457    2.0943   -4.1567 C   0  0  0  0  0  0
    8.4270    3.0229   -5.1776 C   0  0  0  0  0  0
    7.8183    2.8884   -6.4406 C   0  0  0  0  0  0
    6.9275    1.8241   -6.6825 C   0  0  0  0  0  0
    6.6465    0.8949   -5.6619 C   0  0  0  0  0  0
    6.3401    1.6930   -7.8956 F   0  0  0  0  0  0
    8.0900    3.7825   -7.4208 F   0  0  0  0  0  0
   -1.9947   -2.3266    1.3432 H   0  0  0  0  0  0
   -7.7301   -1.3900    2.0129 H   0  0  0  0  0  0
   -6.1112   -2.2351    3.5776 H   0  0  0  0  0  0
   -3.8083   -2.4846    2.9179 H   0  0  0  0  0  0
   -7.0529   -0.7926   -0.2192 H   0  0  0  0  0  0
   -0.9925   -2.2618   -2.0860 H   0  0  0  0  0  0
   -0.3789   -2.3220   -0.3989 H   0  0  0  0  0  0
   -0.8620    0.2391   -2.0387 H   0  0  0  0  0  0
   -0.2332    0.1706   -0.3575 H   0  0  0  0  0  0
    6.3281    1.8587   -1.2679 H   0  0  0  0  0  0
    6.8193   -0.9721   -3.7340 H   0  0  0  0  0  0
    7.7756    0.0108   -2.5738 H   0  0  0  0  0  0
    8.6139    2.2054   -3.1896 H   0  0  0  0  0  0
    9.1095    3.8390   -4.9914 H   0  0  0  0  0  0
    5.9610    0.0819   -5.8520 H   0  0  0  0  0  0
    1.5832    1.0382   -0.5758 H   0  0  0  0  0  0
  1  6  2  0  0  0
  1 32  1  0  0  0
  1  2  1  0  0  0
  2 33  1  0  0  0
  2  3  2  0  0  0
  3 34  1  0  0  0
  3  4  1  0  0  0
  4  5  2  0  0  0
  4 11  1  0  0  0
  5  7  1  0  0  0
  5  6  1  0  0  0
  6 35  1  0  0  0
  7  8  2  0  0  0
  7  9  1  0  0  0
  9 10  2  0  0  0
 10 11  1  0  0  0
 10 12  1  0  0  0
 11 31  1  0  0  0
 12 13  1  0  0  0
 12 36  1  0  0  0
 12 37  1  0  0  0
 13 38  1  0  0  0
 13 39  1  0  0  0
 13 14  1  0  0  0
 14 16  1  0  0  0
 14 15  2  0  0  0
 16 17  1  0  0  0
 16 46  1  0  0  0
 17 21  1  0  0  0
 17 18  2  0  0  0
 18 19  1  0  0  0
 19 40  1  0  0  0
 19 20  2  0  0  0
 20 22  1  0  0  0
 20 21  1  0  0  0
 22 23  1  0  0  0
 22 41  1  0  0  0
 22 42  1  0  0  0
 23 28  1  0  0  0
 23 24  2  0  0  0
 24 25  1  0  0  0
 24 43  1  0  0  0
 25 26  2  0  0  0
 25 44  1  0  0  0
 26 27  1  0  0  0
 26 30  1  0  0  0
 27 28  2  0  0  0
 27 29  1  0  0  0
 28 45  1  0  0  0
M  END
> <s_m_source_file>
SM18.smi

> <i_m_source_file_index>
1

> <i_lp_mmshare_version>
40011

> <i_f3d_flags>
0

> <s_lp_Force_Field>
OPLS_2005

> <r_lp_Energy>
17.4490160392642

> <b_lp_Chiralities_Consistent>
1

> <s_lp_Variant>
SM18-1

> <s_epik_input>
W2NIXTFbY0hdW2NIXVtjSF1jKGMxMiljKD1PKVtuSF1jKG4yKVtDSDJdW0NIMl1DKD1PKVtOSF1jM25bY0hdYyhzMylbQ0gyXWM0W2NIXVtjSF1jKEYpYyhGKVtjSF00

> <s_epik_cmdline>
J2VwaWtfYXBwJywgJy1pbWFlJywgJ1NNMTguMy4zLm1hZScsICctb21hZScsICdTTTE4LmVwaWsuMy4zLm1hZScsICctcCcsICcwLjAwMDA0NTM5OTkyOTgnLCAnLXBoJywgJzMuMyc=

> <r_lp_tautomer_probability>
0.115935005679211

> <r_epik_Ionization_Penalty>
  0.1414

> <r_epik_Ionization_Penalty_Charging>
  0.0000

> <r_epik_Ionization_Penalty_Neutral>
  0.1413

> <r_epik_State_Penalty>
  1.3640

> <r_epik_Charging_Adjusted_Penalty>
1.36397144429055

> <i_epik_Tot_Q>
0

> <i_epik_Tot_abs_Q>
0

$$$$
SM18
                    3D
 Structure written by MMmdl.
 47 50  0  0  1  0            999 V2000
   -6.7748   -1.4928    1.7359 C   0  0  0  0  0  0
   -5.8267   -1.9872    2.6516 C   0  0  0  0  0  0
   -4.4800   -2.1332    2.2658 C   0  0  0  0  0  0
   -4.0688   -1.7859    0.9622 C   0  0  0  0  0  0
   -5.0296   -1.2884    0.0416 C   0  0  0  0  0  0
   -6.3787   -1.1433    0.4308 C   0  0  0  0  0  0
   -4.5674   -0.9263   -1.3434 C   0  0  0  0  0  0
   -5.3395   -0.4892   -2.1953 O   0  0  0  0  0  0
   -3.2549   -1.1197   -1.5759 N   0  3  0  0  0  0
   -2.3766   -1.6140   -0.6033 C   0  0  0  0  0  0
   -2.7157   -1.9414    0.6072 N   0  0  0  0  0  0
   -0.9559   -1.7294   -1.1241 C   0  0  0  0  0  0
   -0.2792   -0.3574   -1.3213 C   0  0  0  0  0  0
    1.1497   -0.4717   -1.8604 C   0  0  0  0  0  0
    1.4142   -1.3148   -2.7179 O   0  0  0  0  0  0
    2.0403    0.3945   -1.3418 N   0  0  0  0  0  0
    3.4140    0.5442   -1.6672 C   0  0  0  0  0  0
    4.2389    1.4166   -1.0778 N   0  0  0  0  0  0
    5.5421    1.3196   -1.5707 C   0  0  0  0  0  0
    5.6944    0.3793   -2.5611 C   0  0  0  0  0  0
    4.1859   -0.4282   -2.9096 S   0  0  0  0  0  0
    6.9461    0.0290   -3.2960 C   0  0  0  0  0  0
    7.2550    1.0266   -4.3959 C   0  0  0  0  0  0
    8.1457    2.0943   -4.1567 C   0  0  0  0  0  0
    8.4270    3.0229   -5.1776 C   0  0  0  0  0  0
    7.8183    2.8884   -6.4406 C   0  0  0  0  0  0
    6.9275    1.8241   -6.6825 C   0  0  0  0  0  0
    6.6465    0.8949   -5.6619 C   0  0  0  0  0  0
    6.3401    1.6930   -7.8956 F   0  0  0  0  0  0
    8.0900    3.7825   -7.4208 F   0  0  0  0  0  0
   -2.8803   -0.8714   -2.5800 H   0  0  0  0  0  0
   -7.7301   -1.3900    2.0129 H   0  0  0  0  0  0
   -6.1111   -2.2349    3.5777 H   0  0  0  0  0  0
   -3.8084   -2.4850    2.9178 H   0  0  0  0  0  0
   -7.0529   -0.7926   -0.2192 H   0  0  0  0  0  0
   -0.9925   -2.2618   -2.0860 H   0  0  0  0  0  0
   -0.3789   -2.3220   -0.3989 H   0  0  0  0  0  0
   -0.8620    0.2391   -2.0387 H   0  0  0  0  0  0
   -0.2332    0.1706   -0.3575 H   0  0  0  0  0  0
    6.3281    1.8587   -1.2679 H   0  0  0  0  0  0
    6.8193   -0.9721   -3.7340 H   0  0  0  0  0  0
    7.7756    0.0108   -2.5738 H   0  0  0  0  0  0
    8.6139    2.2054   -3.1896 H   0  0  0  0  0  0
    9.1095    3.8390   -4.9914 H   0  0  0  0  0  0
    5.9610    0.0819   -5.8520 H   0  0  0  0  0  0
    1.5832    1.0382   -0.5758 H   0  0  0  0  0  0
   -1.9947   -2.3266    1.3432 H   0  0  0  0  0  0
  1  6  1  0  0  0
  1 32  1  0  0  0
  1  2  2  0  0  0
  2 33  1  0  0  0
  2  3  1  0  0  0
  3 34  1  0  0  0
  3  4  2  0  0  0
  4  5  1  0  0  0
  4 11  1  0  0  0
  5  7  1  0  0  0
  5  6  2  0  0  0
  6 35  1  0  0  0
  7  8  2  0  0  0
  7  9  1  0  0  0
  9 10  2  0  0  0
  9 31  1  0  0  0
 10 11  1  0  0  0
 10 12  1  0  0  0
 11 47  1  0  0  0
 12 13  1  0  0  0
 12 36  1  0  0  0
 12 37  1  0  0  0
 13 38  1  0  0  0
 13 39  1  0  0  0
 13 14  1  0  0  0
 14 16  1  0  0  0
 14 15  2  0  0  0
 16 17  1  0  0  0
 16 46  1  0  0  0
 17 21  1  0  0  0
 17 18  2  0  0  0
 18 19  1  0  0  0
 19 40  1  0  0  0
 19 20  2  0  0  0
 20 22  1  0  0  0
 20 21  1  0  0  0
 22 23  1  0  0  0
 22 41  1  0  0  0
 22 42  1  0  0  0
 23 28  1  0  0  0
 23 24  2  0  0  0
 24 25  1  0  0  0
 24 43  1  0  0  0
 25 26  2  0  0  0
 25 44  1  0  0  0
 26 27  1  0  0  0
 26 30  1  0  0  0
 27 28  2  0  0  0
 27 29  1  0  0  0
 28 45  1  0  0  0
M  CHG  1   9   1
M  END
> <s_m_source_file>
SM18.smi

> <i_m_source_file_index>
1

> <i_lp_mmshare_version>
40011

> <i_f3d_flags>
0

> <s_lp_Force_Field>
OPLS_2005

> <r_lp_Energy>
17.4490160392642

> <b_lp_Chiralities_Consistent>
1

> <s_lp_Variant>
SM18-1

> <s_epik_input>
W2NIXTFbY0hdW2NIXVtjSF1jKGMxMiljKD1PKVtuSF1jKG4yKVtDSDJdW0NIMl1DKD1PKVtOSF1jM25bY0hdYyhzMylbQ0gyXWM0W2NIXVtjSF1jKEYpYyhGKVtjSF00

> <s_epik_cmdline>
J2VwaWtfYXBwJywgJy1pbWFlJywgJ1NNMTguMy4zLm1hZScsICctb21hZScsICdTTTE4LmVwaWsuMy4zLm1hZScsICctcCcsICcwLjAwMDA0NTM5OTkyOTgnLCAnLXBoJywgJzMuMyc=

> <r_epik_Ionization_Penalty>
  4.0855

> <r_epik_Ionization_Penalty_Charging>
  4.0027

> <r_epik_Ionization_Penalty_Neutral>
  0.0827

> <r_epik_State_Penalty>
  2.8169

> <r_epik_Charging_Adjusted_Penalty>
6.81965905307472

> <i_epik_Tot_Q>
1

> <i_epik_Tot_abs_Q>
1

$$$$
SM18
                    3D
 Structure written by MMmdl.
 47 50  0  0  1  0            999 V2000
   -6.7748   -1.4928    1.7359 C   0  0  0  0  0  0
   -5.8267   -1.9872    2.6516 C   0  0  0  0  0  0
   -4.4800   -2.1332    2.2658 C   0  0  0  0  0  0
   -4.0688   -1.7859    0.9622 C   0  0  0  0  0  0
   -5.0296   -1.2884    0.0416 C   0  0  0  0  0  0
   -6.3787   -1.1433    0.4308 C   0  0  0  0  0  0
   -4.5674   -0.9263   -1.3434 C   0  0  0  0  0  0
   -5.3395   -0.4892   -2.1953 O   0  0  0  0  0  0
   -3.2549   -1.1197   -1.5759 N   0  0  0  0  0  0
   -2.3766   -1.6140   -0.6033 C   0  0  0  0  0  0
   -2.7157   -1.9414    0.6072 N   0  0  0  0  0  0
   -0.9559   -1.7294   -1.1241 C   0  0  0  0  0  0
   -0.2792   -0.3574   -1.3213 C   0  0  0  0  0  0
    1.1497   -0.4717   -1.8604 C   0  0  0  0  0  0
    1.4142   -1.3148   -2.7179 O   0  0  0  0  0  0
    2.0403    0.3945   -1.3418 N   0  0  0  0  0  0
    3.4140    0.5442   -1.6672 C   0  0  0  0  0  0
    4.2389    1.4166   -1.0778 N   0  3  0  0  0  0
    5.5421    1.3196   -1.5707 C   0  0  0  0  0  0
    5.6944    0.3793   -2.5611 C   0  0  0  0  0  0
    4.1859   -0.4282   -2.9096 S   0  0  0  0  0  0
    6.9461    0.0290   -3.2960 C   0  0  0  0  0  0
    7.2550    1.0266   -4.3959 C   0  0  0  0  0  0
    8.1457    2.0943   -4.1567 C   0  0  0  0  0  0
    8.4270    3.0229   -5.1776 C   0  0  0  0  0  0
    7.8183    2.8884   -6.4406 C   0  0  0  0  0  0
    6.9275    1.8241   -6.6825 C   0  0  0  0  0  0
    6.6465    0.8949   -5.6619 C   0  0  0  0  0  0
    6.3401    1.6930   -7.8956 F   0  0  0  0  0  0
    8.0900    3.7825   -7.4208 F   0  0  0  0  0  0
   -2.8803   -0.8714   -2.5800 H   0  0  0  0  0  0
   -7.7301   -1.3900    2.0129 H   0  0  0  0  0  0
   -6.1111   -2.2349    3.5777 H   0  0  0  0  0  0
   -3.8084   -2.4850    2.9178 H   0  0  0  0  0  0
   -7.0529   -0.7926   -0.2192 H   0  0  0  0  0  0
   -0.9925   -2.2618   -2.0860 H   0  0  0  0  0  0
   -0.3789   -2.3220   -0.3989 H   0  0  0  0  0  0
   -0.8620    0.2391   -2.0387 H   0  0  0  0  0  0
   -0.2332    0.1706   -0.3575 H   0  0  0  0  0  0
    6.3281    1.8587   -1.2679 H   0  0  0  0  0  0
    6.8193   -0.9721   -3.7340 H   0  0  0  0  0  0
    7.7756    0.0108   -2.5738 H   0  0  0  0  0  0
    8.6139    2.2054   -3.1896 H   0  0  0  0  0  0
    9.1095    3.8390   -4.9914 H   0  0  0  0  0  0
    5.9610    0.0819   -5.8520 H   0  0  0  0  0  0
    1.5832    1.0382   -0.5758 H   0  0  0  0  0  0
    4.0001    2.1516   -0.2951 H   0  0  0  0  0  0
  1  6  2  0  0  0
  1 32  1  0  0  0
  1  2  1  0  0  0
  2 33  1  0  0  0
  2  3  2  0  0  0
  3 34  1  0  0  0
  3  4  1  0  0  0
  4  5  2  0  0  0
  4 11  1  0  0  0
  5  7  1  0  0  0
  5  6  1  0  0  0
  6 35  1  0  0  0
  7  8  2  0  0  0
  7  9  1  0  0  0
  9 10  1  0  0  0
  9 31  1  0  0  0
 10 11  2  0  0  0
 10 12  1  0  0  0
 12 13  1  0  0  0
 12 36  1  0  0  0
 12 37  1  0  0  0
 13 38  1  0  0  0
 13 39  1  0  0  0
 13 14  1  0  0  0
 14 16  1  0  0  0
 14 15  2  0  0  0
 16 17  1  0  0  0
 16 46  1  0  0  0
 17 21  1  0  0  0
 17 18  2  0  0  0
 18 19  1  0  0  0
 18 47  1  0  0  0
 19 40  1  0  0  0
 19 20  2  0  0  0
 20 22  1  0  0  0
 20 21  1  0  0  0
 22 23  1  0  0  0
 22 41  1  0  0  0
 22 42  1  0  0  0
 23 28  1  0  0  0
 23 24  2  0  0  0
 24 25  1  0  0  0
 24 43  1  0  0  0
 25 26  2  0  0  0
 25 44  1  0  0  0
 26 27  1  0  0  0
 26 30  1  0  0  0
 27 28  2  0  0  0
 27 29  1  0  0  0
 28 45  1  0  0  0
M  CHG  1  18   1
M  END
> <s_m_source_file>
SM18.smi

> <i_m_source_file_index>
1

> <i_lp_mmshare_version>
40011

> <i_f3d_flags>
0

> <s_lp_Force_Field>
OPLS_2005

> <r_lp_Energy>
17.4490160392642

> <b_lp_Chiralities_Consistent>
1

> <s_lp_Variant>
SM18-1

> <s_epik_input>
W2NIXTFbY0hdW2NIXVtjSF1jKGMxMiljKD1PKVtuSF1jKG4yKVtDSDJdW0NIMl1DKD1PKVtOSF1jM25bY0hdYyhzMylbQ0gyXWM0W2NIXVtjSF1jKEYpYyhGKVtjSF00

> <s_epik_cmdline>
J2VwaWtfYXBwJywgJy1pbWFlJywgJ1NNMTguMy4zLm1hZScsICctb21hZScsICdTTTE4LmVwaWsuMy4zLm1hZScsICctcCcsICcwLjAwMDA0NTM5OTkyOTgnLCAnLXBoJywgJzMuMyc=

> <r_lp_tautomer_probability>
0.883938

> <r_epik_Ionization_Penalty>
  1.6113

> <r_epik_Ionization_Penalty_Charging>
  1.2085

> <r_epik_Ionization_Penalty_Neutral>
  0.4029

> <r_epik_State_Penalty>
  4.4408

> <r_epik_Charging_Adjusted_Penalty>
5.64924859200504

> <i_epik_Tot_Q>
1

> <i_epik_Tot_abs_Q>
1

$$$$
SM18
                    3D
 Structure written by MMmdl.
 46 49  0  0  1  0            999 V2000
   -6.8393   -1.3580    1.6101 C   0  0  0  0  0  0
   -5.9073   -1.8577    2.5393 C   0  0  0  0  0  0
   -4.5577   -2.0194    2.1703 C   0  0  0  0  0  0
   -4.1274   -1.6827    0.8702 C   0  0  0  0  0  0
   -5.0720   -1.1798   -0.0641 C   0  0  0  0  0  0
   -6.4241   -1.0189    0.3082 C   0  0  0  0  0  0
   -4.5897   -0.8292   -1.4453 C   0  0  0  0  0  0
   -5.3470   -0.3882   -2.3084 O   0  0  0  0  0  0
   -3.2765   -1.0371   -1.6612 N   0  0  0  0  0  0
   -2.4151   -1.5358   -0.6758 C   0  0  0  0  0  0
   -2.7719   -1.8538    0.5321 N   0  0  0  0  0  0
   -0.9895   -1.6683   -1.1791 C   0  0  0  0  0  0
   -0.2964   -0.3043   -1.3746 C   0  0  0  0  0  0
    1.1376   -0.4359   -1.8960 C   0  0  0  0  0  0
    1.4036   -1.2858   -2.7463 O   0  0  0  0  0  0
    2.0309    0.4236   -1.3709 N   0  0  0  0  0  0
    3.4099    0.5576   -1.6805 C   0  0  0  0  0  0
    4.2389    1.4166   -1.0778 N   0  0  0  0  0  0
    5.5421    1.3196   -1.5707 C   0  0  0  0  0  0
    5.6944    0.3793   -2.5611 C   0  0  0  0  0  0
    4.1830   -0.4185   -2.9193 S   0  0  0  0  0  0
    6.9461    0.0290   -3.2960 C   0  0  0  0  0  0
    7.2550    1.0266   -4.3959 C   0  0  0  0  0  0
    8.1457    2.0943   -4.1567 C   0  0  0  0  0  0
    8.4270    3.0229   -5.1776 C   0  0  0  0  0  0
    7.8183    2.8884   -6.4406 C   0  0  0  0  0  0
    6.9275    1.8241   -6.6825 C   0  0  0  0  0  0
    6.6465    0.8949   -5.6619 C   0  0  0  0  0  0
    6.3401    1.6930   -7.8956 F   0  0  0  0  0  0
    8.0900    3.7825   -7.4208 F   0  0  0  0  0  0
   -2.8875   -0.7976   -2.6618 H   0  0  0  0  0  0
   -7.7967   -1.2441    1.8752 H   0  0  0  0  0  0
   -6.2053   -2.0980    3.4631 H   0  0  0  0  0  0
   -3.8976   -2.3750    2.8320 H   0  0  0  0  0  0
   -7.0868   -0.6645   -0.3515 H   0  0  0  0  0  0
   -1.0202   -2.2049   -2.1388 H   0  0  0  0  0  0
   -0.4274   -2.2633   -0.4442 H   0  0  0  0  0  0
   -0.8643    0.2947   -2.1016 H   0  0  0  0  0  0
   -0.2563    0.2279   -0.4127 H   0  0  0  0  0  0
    6.3281    1.8587   -1.2679 H   0  0  0  0  0  0
    6.8193   -0.9721   -3.7340 H   0  0  0  0  0  0
    7.7756    0.0108   -2.5738 H   0  0  0  0  0  0
    8.6139    2.2054   -3.1896 H   0  0  0  0  0  0
    9.1095    3.8390   -4.9914 H   0  0  0  0  0  0
    5.9610    0.0819   -5.8520 H   0  0  0  0  0  0
    4.0033    2.1415   -0.2847 H   0  0  0  0  0  0
  1  6  2  0  0  0
  1 32  1  0  0  0
  1  2  1  0  0  0
  2 33  1  0  0  0
  2  3  2  0  0  0
  3 34  1  0  0  0
  3  4  1  0  0  0
  4  5  2  0  0  0
  4 11  1  0  0  0
  5  7  1  0  0  0
  5  6  1  0  0  0
  6 35  1  0  0  0
  7  8  2  0  0  0
  7  9  1  0  0  0
  9 10  1  0  0  0
  9 31  1  0  0  0
 10 11  2  0  0  0
 10 12  1  0  0  0
 12 13  1  0  0  0
 12 36  1  0  0  0
 12 37  1  0  0  0
 13 38  1  0  0  0
 13 39  1  0  0  0
 13 14  1  0  0  0
 14 16  1  0  0  0
 14 15  2  0  0  0
 16 17  2  0  0  0
 17 21  1  0  0  0
 17 18  1  0  0  0
 18 19  1  0  0  0
 18 46  1  0  0  0
 19 40  1  0  0  0
 19 20  2  0  0  0
 20 22  1  0  0  0
 20 21  1  0  0  0
 22 23  1  0  0  0
 22 41  1  0  0  0
 22 42  1  0  0  0
 23 28  1  0  0  0
 23 24  2  0  0  0
 24 25  1  0  0  0
 24 43  1  0  0  0
 25 26  2  0  0  0
 25 44  1  0  0  0
 26 27  1  0  0  0
 26 30  1  0  0  0
 27 28  2  0  0  0
 27 29  1  0  0  0
 28 45  1  0  0  0
M  END
> <s_m_source_file>
SM18.smi

> <i_m_source_file_index>
1

> <i_lp_mmshare_version>
40011

> <i_f3d_flags>
0

> <s_lp_Force_Field>
OPLS_2005

> <r_lp_Energy>
17.4490160392642

> <b_lp_Chiralities_Consistent>
1

> <s_lp_Variant>
SM18-1

> <s_epik_input>
W2NIXTFbY0hdW2NIXVtjSF1jKGMxMiljKD1PKVtuSF1jKG4yKVtDSDJdW0NIMl1DKD1PKVtOSF1jM25bY0hdYyhzMylbQ0gyXWM0W2NIXVtjSF1jKEYpYyhGKVtjSF00

> <s_epik_cmdline>
J2VwaWtfYXBwJywgJy1pbWFlJywgJ1NNMTguMy4zLm1hZScsICctb21hZScsICdTTTE4LmVwaWsuMy4zLm1hZScsICctcCcsICcwLjAwMDA0NTM5OTkyOTgnLCAnLXBoJywgJzMuMyc=

> <r_lp_tautomer_probability>
0.000441748120917748

> <r_epik_Ionization_Penalty>
  1.4135

> <r_epik_Ionization_Penalty_Charging>
  0.4265

> <r_epik_Ionization_Penalty_Neutral>
  0.9870

> <r_epik_State_Penalty>
  4.6627

> <r_epik_Charging_Adjusted_Penalty>
5.08922714635673

> <i_epik_Tot_Q>
0

> <i_epik_Tot_abs_Q>
0

$$$$
SM18
                    3D
 Structure written by MMmdl.
 46 49  0  0  1  0            999 V2000
   -7.4271    0.4245   -0.2365 C   0  0  0  0  0  0
   -7.0857    1.0479   -1.4517 C   0  0  0  0  0  0
   -5.7619    1.4694   -1.6830 C   0  0  0  0  0  0
   -4.7676    1.2710   -0.7027 C   0  0  0  0  0  0
   -5.1174    0.6424    0.5223 C   0  0  0  0  0  0
   -6.4451    0.2211    0.7516 C   0  0  0  0  0  0
   -4.0401    0.4433    1.5532 C   0  0  0  0  0  0
   -4.2653   -0.0932    2.6369 O   0  0  0  0  0  0
   -2.8219    0.8972    1.2007 N   0  0  0  0  0  0
   -2.5666    1.5044   -0.0354 C   0  0  0  0  0  0
   -3.4533    1.7016   -0.9641 N   0  0  0  0  0  0
   -1.1132    1.9166   -0.1786 C   0  0  0  0  0  0
   -0.1654    0.7120   -0.3515 C   0  0  0  0  0  0
    1.3034    1.1256   -0.4818 C   0  0  0  0  0  0
    1.7438    2.0442    0.2098 O   0  0  0  0  0  0
    2.0309    0.4236   -1.3709 N   0  0  0  0  0  0
    3.4099    0.5576   -1.6805 C   0  0  0  0  0  0
    4.2389    1.4166   -1.0778 N   0  0  0  0  0  0
    5.5421    1.3196   -1.5707 C   0  0  0  0  0  0
    5.6944    0.3793   -2.5611 C   0  0  0  0  0  0
    4.1830   -0.4185   -2.9193 S   0  0  0  0  0  0
    6.9461    0.0290   -3.2960 C   0  0  0  0  0  0
    7.2550    1.0266   -4.3959 C   0  0  0  0  0  0
    8.1457    2.0943   -4.1567 C   0  0  0  0  0  0
    8.4270    3.0229   -5.1776 C   0  0  0  0  0  0
    7.8183    2.8884   -6.4406 C   0  0  0  0  0  0
    6.9275    1.8241   -6.6825 C   0  0  0  0  0  0
    6.6465    0.8949   -5.6619 C   0  0  0  0  0  0
    6.3401    1.6930   -7.8956 F   0  0  0  0  0  0
    8.0900    3.7825   -7.4208 F   0  0  0  0  0  0
   -2.0089    0.7744    1.9315 H   0  0  0  0  0  0
   -8.3678    0.1261   -0.0754 H   0  0  0  0  0  0
   -7.7856    1.1913   -2.1514 H   0  0  0  0  0  0
   -5.5219    1.9124   -2.5468 H   0  0  0  0  0  0
   -6.6884   -0.2213    1.6148 H   0  0  0  0  0  0
   -0.8321    2.4775    0.7250 H   0  0  0  0  0  0
   -1.0350    2.5738   -1.0572 H   0  0  0  0  0  0
   -0.2513    0.0495    0.5224 H   0  0  0  0  0  0
   -0.4399    0.1571   -1.2607 H   0  0  0  0  0  0
    6.3281    1.8587   -1.2679 H   0  0  0  0  0  0
    6.8193   -0.9721   -3.7340 H   0  0  0  0  0  0
    7.7756    0.0108   -2.5738 H   0  0  0  0  0  0
    8.6139    2.2054   -3.1896 H   0  0  0  0  0  0
    9.1095    3.8390   -4.9914 H   0  0  0  0  0  0
    5.9610    0.0819   -5.8520 H   0  0  0  0  0  0
    4.0033    2.1415   -0.2847 H   0  0  0  0  0  0
  1  6  2  0  0  0
  1 32  1  0  0  0
  1  2  1  0  0  0
  2 33  1  0  0  0
  2  3  2  0  0  0
  3 34  1  0  0  0
  3  4  1  0  0  0
  4  5  2  0  0  0
  4 11  1  0  0  0
  5  7  1  0  0  0
  5  6  1  0  0  0
  6 35  1  0  0  0
  7  8  2  0  0  0
  7  9  1  0  0  0
  9 10  1  0  0  0
  9 31  1  0  0  0
 10 11  2  0  0  0
 10 12  1  0  0  0
 12 13  1  0  0  0
 12 36  1  0  0  0
 12 37  1  0  0  0
 13 38  1  0  0  0
 13 39  1  0  0  0
 13 14  1  0  0  0
 14 16  1  0  0  0
 14 15  2  0  0  0
 16 17  2  0  0  0
 17 21  1  0  0  0
 17 18  1  0  0  0
 18 19  1  0  0  0
 18 46  1  0  0  0
 19 40  1  0  0  0
 19 20  2  0  0  0
 20 22  1  0  0  0
 20 21  1  0  0  0
 22 23  1  0  0  0
 22 41  1  0  0  0
 22 42  1  0  0  0
 23 28  1  0  0  0
 23 24  2  0  0  0
 24 25  1  0  0  0
 24 43  1  0  0  0
 25 26  2  0  0  0
 25 44  1  0  0  0
 26 27  1  0  0  0
 26 30  1  0  0  0
 27 28  2  0  0  0
 27 29  1  0  0  0
 28 45  1  0  0  0
M  END
> <s_m_source_file>
SM18.smi

> <i_m_source_file_index>
1

> <i_lp_mmshare_version>
40011

> <i_f3d_flags>
0

> <s_lp_Force_Field>
OPLS_2005

> <r_lp_Energy>
17.4490160392642

> <b_lp_Chiralities_Consistent>
1

> <s_lp_Variant>
SM18-1

> <s_epik_input>
W2NIXTFbY0hdW2NIXVtjSF1jKGMxMiljKD1PKVtuSF1jKG4yKVtDSDJdW0NIMl1DKD1PKVtOSF1jM25bY0hdYyhzMylbQ0gyXWM0W2NIXVtjSF1jKEYpYyhGKVtjSF00

> <s_epik_cmdline>
J2VwaWtfYXBwJywgJy1pbWFlJywgJ1NNMTguMy4zLm1hZScsICctb21hZScsICdTTTE4LmVwaWsuMy4zLm1hZScsICctcCcsICcwLjAwMDA0NTM5OTkyOTgnLCAnLXBoJywgJzMuMyc=

> <r_lp_tautomer_probability>
0.000441748120917748

> <r_epik_Ionization_Penalty>
  1.4135

> <r_epik_Ionization_Penalty_Charging>
  0.4265

> <r_epik_Ionization_Penalty_Neutral>
  0.9870

> <r_epik_State_Penalty>
  4.6627

> <r_epik_Charging_Adjusted_Penalty>
5.08922714635673

> <i_epik_Tot_Q>
0

> <i_epik_Tot_abs_Q>
0

$$$$
SM18
                    3D
 Structure written by MMmdl.
 47 50  0  0  1  0            999 V2000
   -6.7748   -1.4928    1.7359 C   0  0  0  0  0  0
   -5.8267   -1.9872    2.6516 C   0  0  0  0  0  0
   -4.4800   -2.1332    2.2658 C   0  0  0  0  0  0
   -4.0688   -1.7859    0.9622 C   0  0  0  0  0  0
   -5.0296   -1.2884    0.0416 C   0  0  0  0  0  0
   -6.3787   -1.1433    0.4308 C   0  0  0  0  0  0
   -4.5674   -0.9263   -1.3434 C   0  0  0  0  0  0
   -5.3395   -0.4892   -2.1953 O   0  0  0  0  0  0
   -3.2549   -1.1197   -1.5759 N   0  0  0  0  0  0
   -2.3766   -1.6140   -0.6033 C   0  0  0  0  0  0
   -2.7157   -1.9414    0.6072 N   0  0  0  0  0  0
   -0.9559   -1.7294   -1.1241 C   0  0  0  0  0  0
   -0.2792   -0.3574   -1.3213 C   0  0  0  0  0  0
    1.1497   -0.4717   -1.8604 C   0  0  0  0  0  0
    1.4142   -1.3148   -2.7179 O   0  0  0  0  0  0
    2.0403    0.3945   -1.3418 N   0  0  0  0  0  0
    3.4140    0.5442   -1.6672 C   0  0  0  0  0  0
    4.2389    1.4166   -1.0778 N   0  3  0  0  0  0
    5.5421    1.3196   -1.5707 C   0  0  0  0  0  0
    5.6944    0.3793   -2.5611 C   0  0  0  0  0  0
    4.1859   -0.4282   -2.9096 S   0  0  0  0  0  0
    6.9461    0.0290   -3.2960 C   0  0  0  0  0  0
    7.2550    1.0266   -4.3959 C   0  0  0  0  0  0
    8.1457    2.0943   -4.1567 C   0  0  0  0  0  0
    8.4270    3.0229   -5.1776 C   0  0  0  0  0  0
    7.8183    2.8884   -6.4406 C   0  0  0  0  0  0
    6.9275    1.8241   -6.6825 C   0  0  0  0  0  0
    6.6465    0.8949   -5.6619 C   0  0  0  0  0  0
    6.3401    1.6930   -7.8956 F   0  0  0  0  0  0
    8.0900    3.7825   -7.4208 F   0  0  0  0  0  0
   -1.9947   -2.3266    1.3432 H   0  0  0  0  0  0
   -7.7301   -1.3900    2.0129 H   0  0  0  0  0  0
   -6.1112   -2.2351    3.5776 H   0  0  0  0  0  0
   -3.8083   -2.4846    2.9179 H   0  0  0  0  0  0
   -7.0529   -0.7926   -0.2192 H   0  0  0  0  0  0
   -0.9925   -2.2618   -2.0860 H   0  0  0  0  0  0
   -0.3789   -2.3220   -0.3989 H   0  0  0  0  0  0
   -0.8620    0.2391   -2.0387 H   0  0  0  0  0  0
   -0.2332    0.1706   -0.3575 H   0  0  0  0  0  0
    6.3281    1.8587   -1.2679 H   0  0  0  0  0  0
    6.8193   -0.9721   -3.7340 H   0  0  0  0  0  0
    7.7756    0.0108   -2.5738 H   0  0  0  0  0  0
    8.6139    2.2054   -3.1896 H   0  0  0  0  0  0
    9.1095    3.8390   -4.9914 H   0  0  0  0  0  0
    5.9610    0.0819   -5.8520 H   0  0  0  0  0  0
    1.5832    1.0382   -0.5758 H   0  0  0  0  0  0
    4.0001    2.1516   -0.2951 H   0  0  0  0  0  0
  1  6  2  0  0  0
  1 32  1  0  0  0
  1  2  1  0  0  0
  2 33  1  0  0  0
  2  3  2  0  0  0
  3 34  1  0  0  0
  3  4  1  0  0  0
  4  5  2  0  0  0
  4 11  1  0  0  0
  5  7  1  0  0  0
  5  6  1  0  0  0
  6 35  1  0  0  0
  7  8  2  0  0  0
  7  9  1  0  0  0
  9 10  2  0  0  0
 10 11  1  0  0  0
 10 12  1  0  0  0
 11 31  1  0  0  0
 12 13  1  0  0  0
 12 36  1  0  0  0
 12 37  1  0  0  0
 13 38  1  0  0  0
 13 39  1  0  0  0
 13 14  1  0  0  0
 14 16  1  0  0  0
 14 15  2  0  0  0
 16 17  1  0  0  0
 16 46  1  0  0  0
 17 21  1  0  0  0
 17 18  2  0  0  0
 18 19  1  0  0  0
 18 47  1  0  0  0
 19 40  1  0  0  0
 19 20  2  0  0  0
 20 22  1  0  0  0
 20 21  1  0  0  0
 22 23  1  0  0  0
 22 41  1  0  0  0
 22 42  1  0  0  0
 23 28  1  0  0  0
 23 24  2  0  0  0
 24 25  1  0  0  0
 24 43  1  0  0  0
 25 26  2  0  0  0
 25 44  1  0  0  0
 26 27  1  0  0  0
 26 30  1  0  0  0
 27 28  2  0  0  0
 27 29  1  0  0  0
 28 45  1  0  0  0
M  CHG  1  18   1
M  END
> <s_m_source_file>
SM18.smi

> <i_m_source_file_index>
1

> <i_lp_mmshare_version>
40011

> <i_f3d_flags>
0

> <s_lp_Force_Field>
OPLS_2005

> <r_lp_Energy>
17.4490160392642

> <b_lp_Chiralities_Consistent>
1

> <s_lp_Variant>
SM18-1

> <s_epik_input>
W2NIXTFbY0hdW2NIXVtjSF1jKGMxMiljKD1PKVtuSF1jKG4yKVtDSDJdW0NIMl1DKD1PKVtOSF1jM25bY0hdYyhzMylbQ0gyXWM0W2NIXVtjSF1jKEYpYyhGKVtjSF00

> <s_epik_cmdline>
J2VwaWtfYXBwJywgJy1pbWFlJywgJ1NNMTguMy4zLm1hZScsICctb21hZScsICdTTTE4LmVwaWsuMy4zLm1hZScsICctcCcsICcwLjAwMDA0NTM5OTkyOTgnLCAnLXBoJywgJzMuMyc=

> <r_lp_tautomer_probability>
0.116051

> <r_epik_Ionization_Penalty>
  1.6598

> <r_epik_Ionization_Penalty_Charging>
  1.2085

> <r_epik_Ionization_Penalty_Neutral>
  0.4514

> <r_epik_State_Penalty>
  5.7430

> <r_epik_Charging_Adjusted_Penalty>
6.95150920998336

> <i_epik_Tot_Q>
1

> <i_epik_Tot_abs_Q>
1

$$$$
