SM18
                    3D
 Structure written by MMmdl.
 46 49  0  0  1  0            999 V2000
   -7.4314    0.4503   -0.2605 C   0  0  0  0  0  0
   -7.0865    1.0734   -1.4748 C   0  0  0  0  0  0
   -5.7613    1.4918   -1.7038 C   0  0  0  0  0  0
   -4.7692    1.2912   -0.7218 C   0  0  0  0  0  0
   -5.1225    0.6629    0.5024 C   0  0  0  0  0  0
   -6.4515    0.2444    0.7293 C   0  0  0  0  0  0
   -4.0475    0.4613    1.5353 C   0  0  0  0  0  0
   -4.2758   -0.0750    2.6184 O   0  0  0  0  0  0
   -2.8270    0.9098    1.1838 N   0  0  0  0  0  0
   -2.5683    1.5169   -0.0517 C   0  0  0  0  0  0
   -3.4532    1.7176   -0.9812 N   0  0  0  0  0  0
   -1.1111    1.9148   -0.1971 C   0  0  0  0  0  0
   -0.1759    0.7011   -0.3746 C   0  0  0  0  0  0
    1.2967    1.1001   -0.5073 C   0  0  0  0  0  0
    1.7478    2.0127    0.1853 O   0  0  0  0  0  0
    2.0151    0.3926   -1.3994 N   0  0  0  0  0  0
    3.3947    0.5133   -1.7118 C   0  0  0  0  0  0
    4.2366    1.3529   -1.0997 N   0  0  0  0  0  0
    5.5364    1.2482   -1.6000 C   0  0  0  0  0  0
    5.6744    0.3173   -2.6013 C   0  0  0  0  0  0
    4.1553   -0.4679   -2.9543 S   0  0  0  0  0  0
    6.9188   -0.0377   -3.3462 C   0  0  0  0  0  0
    7.2326    0.9688   -4.4366 C   0  0  0  0  0  0
    8.1353    2.0247   -4.1901 C   0  0  0  0  0  0
    8.4211    2.9615   -5.2022 C   0  0  0  0  0  0
    7.8050    2.8470   -6.4636 C   0  0  0  0  0  0
    6.9023    1.7946   -6.7127 C   0  0  0  0  0  0
    6.6167    0.8571   -5.7010 C   0  0  0  0  0  0
    6.3078    1.6828   -7.9243 F   0  0  0  0  0  0
    8.0812    3.7491   -7.4353 F   0  0  0  0  0  0
   -1.9815    0.8060    1.8797 H   0  0  0  0  0  0
   -8.4485    0.1306   -0.0879 H   0  0  0  0  0  0
   -7.8399    1.2304   -2.2325 H   0  0  0  0  0  0
   -5.5080    1.9689   -2.6394 H   0  0  0  0  0  0
   -6.7276   -0.2350    1.6572 H   0  0  0  0  0  0
   -0.9939    2.5615   -1.0792 H   0  0  0  0  0  0
   -0.7881    2.4595    0.7023 H   0  0  0  0  0  0
   -0.2666    0.0376    0.4981 H   0  0  0  0  0  0
   -0.4579    0.1508   -1.2844 H   0  0  0  0  0  0
    1.5305   -0.3949   -1.9952 H   0  0  0  0  0  0
    6.3086    1.8786   -1.1845 H   0  0  0  0  0  0
    7.7686   -0.0652   -2.6483 H   0  0  0  0  0  0
    6.7967   -1.0256   -3.8143 H   0  0  0  0  0  0
    8.6092    2.1204   -3.2243 H   0  0  0  0  0  0
    9.1128    3.7685   -5.0105 H   0  0  0  0  0  0
    5.9220    0.0533   -5.8966 H   0  0  0  0  0  0
  1  6  1  0  0  0
  1  2  2  0  0  0
  1 32  1  0  0  0
  2  3  1  0  0  0
  2 33  1  0  0  0
  3  4  2  0  0  0
  3 34  1  0  0  0
  4 11  1  0  0  0
  4  5  1  0  0  0
  5  6  2  0  0  0
  5  7  1  0  0  0
  6 35  1  0  0  0
  7  8  2  0  0  0
  7  9  1  0  0  0
  9 31  1  0  0  0
  9 10  1  0  0  0
 10 11  2  0  0  0
 10 12  1  0  0  0
 12 13  1  0  0  0
 12 36  1  0  0  0
 12 37  1  0  0  0
 13 14  1  0  0  0
 13 38  1  0  0  0
 13 39  1  0  0  0
 14 15  2  0  0  0
 14 16  1  0  0  0
 16 17  1  0  0  0
 16 40  1  0  0  0
 17 21  1  0  0  0
 17 18  2  0  0  0
 18 19  1  0  0  0
 19 20  2  0  0  0
 19 41  1  0  0  0
 20 21  1  0  0  0
 20 22  1  0  0  0
 22 23  1  0  0  0
 22 42  1  0  0  0
 22 43  1  0  0  0
 23 28  1  0  0  0
 23 24  2  0  0  0
 24 25  1  0  0  0
 24 44  1  0  0  0
 25 26  2  0  0  0
 25 45  1  0  0  0
 26 27  1  0  0  0
 26 30  1  0  0  0
 27 28  2  0  0  0
 27 29  1  0  0  0
 28 46  1  0  0  0
M  END
> <s_m_source_file>
SM18.smi

> <i_m_source_file_index>
1

> <i_lp_mmshare_version>
40011

> <i_f3d_flags>
0

> <s_lp_Force_Field>
OPLS_2005

> <r_lp_Energy>
17.4490160392642

> <b_lp_Chiralities_Consistent>
1

> <s_lp_Variant>
SM18-1

> <s_epik_input>
W2NIXTFbY0hdW2NIXVtjSF1jKGMxMiljKD1PKVtuSF1jKG4yKVtDSDJdW0NIMl1DKD1PKVtOSF1jM25bY0hdYyhzMylbQ0gyXWM0W2NIXVtjSF1jKEYpYyhGKVtjSF00

> <s_epik_cmdline>
J2VwaWtfYXBwJywgJy1pbWFlJywgJ1NNMTguMy42Lm1hZScsICctb21hZScsICdTTTE4LmVwaWsuMy42Lm1hZScsICctcCcsICcwLjAwMDA0NTM5OTkyOTgnLCAnLXBoJywgJzMuNic=

> <r_lp_tautomer_probability>
0.883054493714579

> <r_epik_Ionization_Penalty>
  0.0466

> <r_epik_Ionization_Penalty_Charging>
  0.0000

> <r_epik_Ionization_Penalty_Neutral>
  0.0466

> <r_epik_State_Penalty>
  0.0652

> <r_epik_Charging_Adjusted_Penalty>
0.0652463035304767

> <i_epik_Tot_Q>
0

> <i_epik_Tot_abs_Q>
0

$$$$
SM18
                    3D
 Structure written by MMmdl.
 46 49  0  0  1  0            999 V2000
   -7.4312    0.4498   -0.2607 C   0  0  0  0  0  0
   -7.0864    1.0729   -1.4751 C   0  0  0  0  0  0
   -5.7613    1.4918   -1.7038 C   0  0  0  0  0  0
   -4.7692    1.2912   -0.7218 C   0  0  0  0  0  0
   -5.1225    0.6629    0.5024 C   0  0  0  0  0  0
   -6.4515    0.2442    0.7292 C   0  0  0  0  0  0
   -4.0475    0.4613    1.5353 C   0  0  0  0  0  0
   -4.2758   -0.0750    2.6184 O   0  0  0  0  0  0
   -2.8278    0.9129    1.1852 N   0  0  0  0  0  0
   -2.5691    1.5200   -0.0503 C   0  0  0  0  0  0
   -3.4536    1.7192   -0.9805 N   0  0  0  0  0  0
   -1.1145    1.9294   -0.1907 C   0  0  0  0  0  0
   -0.1688    0.7230   -0.3622 C   0  0  0  0  0  0
    1.3011    1.1337   -0.4897 C   0  0  0  0  0  0
    1.7420    2.0512    0.2030 O   0  0  0  0  0  0
    2.0287    0.4305   -1.3776 N   0  0  0  0  0  0
    3.4086    0.5618   -1.6847 C   0  0  0  0  0  0
    4.2412    1.4093   -1.0707 N   0  0  0  0  0  0
    5.5438    1.3142   -1.5656 C   0  0  0  0  0  0
    5.6933    0.3827   -2.5647 C   0  0  0  0  0  0
    4.1821   -0.4154   -2.9223 S   0  0  0  0  0  0
    6.9435    0.0365   -3.3039 C   0  0  0  0  0  0
    7.2535    1.0436   -4.3949 C   0  0  0  0  0  0
    8.1466    2.1072   -4.1468 C   0  0  0  0  0  0
    8.4289    3.0446   -5.1594 C   0  0  0  0  0  0
    7.8189    2.9228   -6.4230 C   0  0  0  0  0  0
    6.9257    1.8626   -6.6738 C   0  0  0  0  0  0
    6.6437    0.9247   -5.6616 C   0  0  0  0  0  0
    6.3370    1.7438   -7.8876 F   0  0  0  0  0  0
    8.0916    3.8253   -7.3952 F   0  0  0  0  0  0
   -3.2103    2.2002   -1.9394 H   0  0  0  0  0  0
   -8.3729    0.1532   -0.1014 H   0  0  0  0  0  0
   -7.7847    1.2180   -2.1760 H   0  0  0  0  0  0
   -5.5188    1.9342   -2.5672 H   0  0  0  0  0  0
   -6.6973   -0.1981    1.5917 H   0  0  0  0  0  0
   -0.8340    2.4895    0.7136 H   0  0  0  0  0  0
   -1.0334    2.5867   -1.0690 H   0  0  0  0  0  0
   -0.2577    0.0604    0.5113 H   0  0  0  0  0  0
   -0.4427    0.1688   -1.2721 H   0  0  0  0  0  0
    1.5529   -0.3620   -1.9739 H   0  0  0  0  0  0
    6.3309    1.8496   -1.2593 H   0  0  0  0  0  0
    7.7907    0.0172   -2.6026 H   0  0  0  0  0  0
    6.8314   -0.9531   -3.7708 H   0  0  0  0  0  0
    8.6159    2.2085   -3.1792 H   0  0  0  0  0  0
    9.1133    3.8574   -4.9664 H   0  0  0  0  0  0
    5.9563    0.1149   -5.8585 H   0  0  0  0  0  0
  1  6  2  0  0  0
  1 32  1  0  0  0
  1  2  1  0  0  0
  2 33  1  0  0  0
  2  3  2  0  0  0
  3 34  1  0  0  0
  3  4  1  0  0  0
  4  5  2  0  0  0
  4 11  1  0  0  0
  5  7  1  0  0  0
  5  6  1  0  0  0
  6 35  1  0  0  0
  7  8  2  0  0  0
  7  9  1  0  0  0
  9 10  2  0  0  0
 10 11  1  0  0  0
 10 12  1  0  0  0
 11 31  1  0  0  0
 12 13  1  0  0  0
 12 36  1  0  0  0
 12 37  1  0  0  0
 13 14  1  0  0  0
 13 38  1  0  0  0
 13 39  1  0  0  0
 14 15  2  0  0  0
 14 16  1  0  0  0
 16 17  1  0  0  0
 16 40  1  0  0  0
 17 21  1  0  0  0
 17 18  2  0  0  0
 18 19  1  0  0  0
 19 20  2  0  0  0
 19 41  1  0  0  0
 20 21  1  0  0  0
 20 22  1  0  0  0
 22 23  1  0  0  0
 22 42  1  0  0  0
 22 43  1  0  0  0
 23 28  1  0  0  0
 23 24  2  0  0  0
 24 25  1  0  0  0
 24 44  1  0  0  0
 25 26  2  0  0  0
 25 45  1  0  0  0
 26 27  1  0  0  0
 26 30  1  0  0  0
 27 28  2  0  0  0
 27 29  1  0  0  0
 28 46  1  0  0  0
M  END
> <s_m_source_file>
SM18.smi

> <i_m_source_file_index>
1

> <i_lp_mmshare_version>
40011

> <i_f3d_flags>
0

> <s_lp_Force_Field>
OPLS_2005

> <r_lp_Energy>
17.4490160392642

> <b_lp_Chiralities_Consistent>
1

> <s_lp_Variant>
SM18-1

> <s_epik_input>
W2NIXTFbY0hdW2NIXVtjSF1jKGMxMiljKD1PKVtuSF1jKG4yKVtDSDJdW0NIMl1DKD1PKVtOSF1jM25bY0hdYyhzMylbQ0gyXWM0W2NIXVtjSF1jKEYpYyhGKVtjSF00

> <s_epik_cmdline>
J2VwaWtfYXBwJywgJy1pbWFlJywgJ1NNMTguMy42Lm1hZScsICctb21hZScsICdTTTE4LmVwaWsuMy42Lm1hZScsICctcCcsICcwLjAwMDA0NTM5OTkyOTgnLCAnLXBoJywgJzMuNic=

> <r_lp_tautomer_probability>
0.115935005679211

> <r_epik_Ionization_Penalty>
  0.0730

> <r_epik_Ionization_Penalty_Charging>
  0.0000

> <r_epik_Ionization_Penalty_Neutral>
  0.0730

> <r_epik_State_Penalty>
  1.3599

> <r_epik_Charging_Adjusted_Penalty>
1.35991966163697

> <i_epik_Tot_Q>
0

> <i_epik_Tot_abs_Q>
0

$$$$
SM18
                    3D
 Structure written by MMmdl.
 47 50  0  0  1  0            999 V2000
   -7.4314    0.4503   -0.2605 C   0  0  0  0  0  0
   -7.0865    1.0734   -1.4748 C   0  0  0  0  0  0
   -5.7613    1.4918   -1.7038 C   0  0  0  0  0  0
   -4.7692    1.2912   -0.7218 C   0  0  0  0  0  0
   -5.1225    0.6629    0.5024 C   0  0  0  0  0  0
   -6.4515    0.2444    0.7293 C   0  0  0  0  0  0
   -4.0475    0.4613    1.5353 C   0  0  0  0  0  0
   -4.2758   -0.0750    2.6184 O   0  0  0  0  0  0
   -2.8270    0.9098    1.1838 N   0  3  0  0  0  0
   -2.5683    1.5169   -0.0517 C   0  0  0  0  0  0
   -3.4532    1.7176   -0.9812 N   0  0  0  0  0  0
   -1.1111    1.9148   -0.1971 C   0  0  0  0  0  0
   -0.1759    0.7011   -0.3746 C   0  0  0  0  0  0
    1.2967    1.1001   -0.5073 C   0  0  0  0  0  0
    1.7478    2.0127    0.1853 O   0  0  0  0  0  0
    2.0151    0.3926   -1.3994 N   0  0  0  0  0  0
    3.3947    0.5133   -1.7118 C   0  0  0  0  0  0
    4.2366    1.3529   -1.0997 N   0  0  0  0  0  0
    5.5364    1.2482   -1.6000 C   0  0  0  0  0  0
    5.6744    0.3173   -2.6013 C   0  0  0  0  0  0
    4.1553   -0.4679   -2.9543 S   0  0  0  0  0  0
    6.9188   -0.0377   -3.3462 C   0  0  0  0  0  0
    7.2326    0.9688   -4.4366 C   0  0  0  0  0  0
    8.1353    2.0247   -4.1901 C   0  0  0  0  0  0
    8.4211    2.9615   -5.2022 C   0  0  0  0  0  0
    7.8050    2.8470   -6.4636 C   0  0  0  0  0  0
    6.9023    1.7946   -6.7127 C   0  0  0  0  0  0
    6.6167    0.8571   -5.7010 C   0  0  0  0  0  0
    6.3078    1.6828   -7.9243 F   0  0  0  0  0  0
    8.0812    3.7491   -7.4353 F   0  0  0  0  0  0
   -1.9815    0.8060    1.8797 H   0  0  0  0  0  0
   -8.4485    0.1306   -0.0879 H   0  0  0  0  0  0
   -7.8399    1.2304   -2.2325 H   0  0  0  0  0  0
   -5.5080    1.9689   -2.6394 H   0  0  0  0  0  0
   -6.7276   -0.2350    1.6572 H   0  0  0  0  0  0
   -0.9939    2.5615   -1.0792 H   0  0  0  0  0  0
   -0.7881    2.4595    0.7023 H   0  0  0  0  0  0
   -0.2666    0.0376    0.4981 H   0  0  0  0  0  0
   -0.4579    0.1508   -1.2844 H   0  0  0  0  0  0
    1.5305   -0.3949   -1.9952 H   0  0  0  0  0  0
    6.3086    1.8786   -1.1845 H   0  0  0  0  0  0
    7.7686   -0.0652   -2.6483 H   0  0  0  0  0  0
    6.7967   -1.0256   -3.8143 H   0  0  0  0  0  0
    8.6092    2.1204   -3.2243 H   0  0  0  0  0  0
    9.1128    3.7685   -5.0105 H   0  0  0  0  0  0
    5.9220    0.0533   -5.8966 H   0  0  0  0  0  0
   -3.2099    2.1987   -1.9401 H   0  0  0  0  0  0
  1  6  1  0  0  0
  1  2  2  0  0  0
  1 32  1  0  0  0
  2  3  1  0  0  0
  2 33  1  0  0  0
  3  4  2  0  0  0
  3 34  1  0  0  0
  4 11  1  0  0  0
  4  5  1  0  0  0
  5  6  2  0  0  0
  5  7  1  0  0  0
  6 35  1  0  0  0
  7  8  2  0  0  0
  7  9  1  0  0  0
  9 31  1  0  0  0
  9 10  2  0  0  0
 10 11  1  0  0  0
 10 12  1  0  0  0
 11 47  1  0  0  0
 12 13  1  0  0  0
 12 36  1  0  0  0
 12 37  1  0  0  0
 13 14  1  0  0  0
 13 38  1  0  0  0
 13 39  1  0  0  0
 14 15  2  0  0  0
 14 16  1  0  0  0
 16 17  1  0  0  0
 16 40  1  0  0  0
 17 21  1  0  0  0
 17 18  2  0  0  0
 18 19  1  0  0  0
 19 20  2  0  0  0
 19 41  1  0  0  0
 20 21  1  0  0  0
 20 22  1  0  0  0
 22 23  1  0  0  0
 22 42  1  0  0  0
 22 43  1  0  0  0
 23 28  1  0  0  0
 23 24  2  0  0  0
 24 25  1  0  0  0
 24 44  1  0  0  0
 25 26  2  0  0  0
 25 45  1  0  0  0
 26 27  1  0  0  0
 26 30  1  0  0  0
 27 28  2  0  0  0
 27 29  1  0  0  0
 28 46  1  0  0  0
M  CHG  1   9   1
M  END
> <s_m_source_file>
SM18.smi

> <i_m_source_file_index>
1

> <i_lp_mmshare_version>
40011

> <i_f3d_flags>
0

> <s_lp_Force_Field>
OPLS_2005

> <r_lp_Energy>
17.4490160392642

> <b_lp_Chiralities_Consistent>
1

> <s_lp_Variant>
SM18-1

> <s_epik_input>
W2NIXTFbY0hdW2NIXVtjSF1jKGMxMiljKD1PKVtuSF1jKG4yKVtDSDJdW0NIMl1DKD1PKVtOSF1jM25bY0hdYyhzMylbQ0gyXWM0W2NIXVtjSF1jKEYpYyhGKVtjSF00

> <s_epik_cmdline>
J2VwaWtfYXBwJywgJy1pbWFlJywgJ1NNMTguMy42Lm1hZScsICctb21hZScsICdTTTE4LmVwaWsuMy42Lm1hZScsICctcCcsICcwLjAwMDA0NTM5OTkyOTgnLCAnLXBoJywgJzMuNic=

> <r_epik_Ionization_Penalty>
  4.8320

> <r_epik_Ionization_Penalty_Charging>
  4.7891

> <r_epik_Ionization_Penalty_Neutral>
  0.0429

> <r_epik_State_Penalty>
  3.9062

> <r_epik_Charging_Adjusted_Penalty>
8.69533452558396

> <i_epik_Tot_Q>
1

> <i_epik_Tot_abs_Q>
1

$$$$
SM18
                    3D
 Structure written by MMmdl.
 47 50  0  0  1  0            999 V2000
   -7.4314    0.4503   -0.2605 C   0  0  0  0  0  0
   -7.0865    1.0734   -1.4748 C   0  0  0  0  0  0
   -5.7613    1.4918   -1.7038 C   0  0  0  0  0  0
   -4.7692    1.2912   -0.7218 C   0  0  0  0  0  0
   -5.1225    0.6629    0.5024 C   0  0  0  0  0  0
   -6.4515    0.2444    0.7293 C   0  0  0  0  0  0
   -4.0475    0.4613    1.5353 C   0  0  0  0  0  0
   -4.2758   -0.0750    2.6184 O   0  0  0  0  0  0
   -2.8270    0.9098    1.1838 N   0  0  0  0  0  0
   -2.5683    1.5169   -0.0517 C   0  0  0  0  0  0
   -3.4532    1.7176   -0.9812 N   0  0  0  0  0  0
   -1.1111    1.9148   -0.1971 C   0  0  0  0  0  0
   -0.1759    0.7011   -0.3746 C   0  0  0  0  0  0
    1.2967    1.1001   -0.5073 C   0  0  0  0  0  0
    1.7478    2.0127    0.1853 O   0  0  0  0  0  0
    2.0151    0.3926   -1.3994 N   0  0  0  0  0  0
    3.3947    0.5133   -1.7118 C   0  0  0  0  0  0
    4.2366    1.3529   -1.0997 N   0  3  0  0  0  0
    5.5364    1.2482   -1.6000 C   0  0  0  0  0  0
    5.6744    0.3173   -2.6013 C   0  0  0  0  0  0
    4.1553   -0.4679   -2.9543 S   0  0  0  0  0  0
    6.9188   -0.0377   -3.3462 C   0  0  0  0  0  0
    7.2326    0.9688   -4.4366 C   0  0  0  0  0  0
    8.1353    2.0247   -4.1901 C   0  0  0  0  0  0
    8.4211    2.9615   -5.2022 C   0  0  0  0  0  0
    7.8050    2.8470   -6.4636 C   0  0  0  0  0  0
    6.9023    1.7946   -6.7127 C   0  0  0  0  0  0
    6.6167    0.8571   -5.7010 C   0  0  0  0  0  0
    6.3078    1.6828   -7.9243 F   0  0  0  0  0  0
    8.0812    3.7491   -7.4353 F   0  0  0  0  0  0
   -1.9815    0.8060    1.8797 H   0  0  0  0  0  0
   -8.4485    0.1306   -0.0879 H   0  0  0  0  0  0
   -7.8399    1.2304   -2.2325 H   0  0  0  0  0  0
   -5.5080    1.9689   -2.6394 H   0  0  0  0  0  0
   -6.7276   -0.2350    1.6572 H   0  0  0  0  0  0
   -0.9939    2.5615   -1.0792 H   0  0  0  0  0  0
   -0.7881    2.4595    0.7023 H   0  0  0  0  0  0
   -0.2666    0.0376    0.4981 H   0  0  0  0  0  0
   -0.4579    0.1508   -1.2844 H   0  0  0  0  0  0
    1.5305   -0.3949   -1.9952 H   0  0  0  0  0  0
    6.3086    1.8786   -1.1845 H   0  0  0  0  0  0
    7.7686   -0.0652   -2.6483 H   0  0  0  0  0  0
    6.7967   -1.0256   -3.8143 H   0  0  0  0  0  0
    8.6092    2.1204   -3.2243 H   0  0  0  0  0  0
    9.1128    3.7685   -5.0105 H   0  0  0  0  0  0
    5.9220    0.0533   -5.8966 H   0  0  0  0  0  0
    3.8691    2.0171   -0.3035 H   0  0  0  0  0  0
  1  6  1  0  0  0
  1  2  2  0  0  0
  1 32  1  0  0  0
  2  3  1  0  0  0
  2 33  1  0  0  0
  3  4  2  0  0  0
  3 34  1  0  0  0
  4 11  1  0  0  0
  4  5  1  0  0  0
  5  6  2  0  0  0
  5  7  1  0  0  0
  6 35  1  0  0  0
  7  8  2  0  0  0
  7  9  1  0  0  0
  9 31  1  0  0  0
  9 10  1  0  0  0
 10 11  2  0  0  0
 10 12  1  0  0  0
 12 13  1  0  0  0
 12 36  1  0  0  0
 12 37  1  0  0  0
 13 14  1  0  0  0
 13 38  1  0  0  0
 13 39  1  0  0  0
 14 15  2  0  0  0
 14 16  1  0  0  0
 16 17  1  0  0  0
 16 40  1  0  0  0
 17 21  1  0  0  0
 17 18  2  0  0  0
 18 19  1  0  0  0
 18 47  1  0  0  0
 19 20  2  0  0  0
 19 41  1  0  0  0
 20 21  1  0  0  0
 20 22  1  0  0  0
 22 23  1  0  0  0
 22 42  1  0  0  0
 22 43  1  0  0  0
 23 28  1  0  0  0
 23 24  2  0  0  0
 24 25  1  0  0  0
 24 44  1  0  0  0
 25 26  2  0  0  0
 25 45  1  0  0  0
 26 27  1  0  0  0
 26 30  1  0  0  0
 27 28  2  0  0  0
 27 29  1  0  0  0
 28 46  1  0  0  0
M  CHG  1  18   1
M  END
> <s_m_source_file>
SM18.smi

> <i_m_source_file_index>
1

> <i_lp_mmshare_version>
40011

> <i_f3d_flags>
0

> <s_lp_Force_Field>
OPLS_2005

> <r_lp_Energy>
17.4490160392642

> <b_lp_Chiralities_Consistent>
1

> <s_lp_Variant>
SM18-1

> <s_epik_input>
W2NIXTFbY0hdW2NIXVtjSF1jKGMxMiljKD1PKVtuSF1jKG4yKVtDSDJdW0NIMl1DKD1PKVtOSF1jM25bY0hdYyhzMylbQ0gyXWM0W2NIXVtjSF1jKEYpYyhGKVtjSF00

> <s_epik_cmdline>
J2VwaWtfYXBwJywgJy1pbWFlJywgJ1NNMTguMy42Lm1hZScsICctb21hZScsICdTTTE4LmVwaWsuMy42Lm1hZScsICctcCcsICcwLjAwMDA0NTM5OTkyOTgnLCAnLXBoJywgJzMuNic=

> <r_lp_tautomer_probability>
0.883938

> <r_epik_Ionization_Penalty>
  2.2113

> <r_epik_Ionization_Penalty_Charging>
  1.5780

> <r_epik_Ionization_Penalty_Neutral>
  0.6333

> <r_epik_State_Penalty>
  4.2935

> <r_epik_Charging_Adjusted_Penalty>
5.87149510639678

> <i_epik_Tot_Q>
1

> <i_epik_Tot_abs_Q>
1

$$$$
SM18
                    3D
 Structure written by MMmdl.
 46 49  0  0  1  0            999 V2000
   -7.4273    0.4250   -0.2364 C   0  0  0  0  0  0
   -7.0859    1.0484   -1.4515 C   0  0  0  0  0  0
   -5.7619    1.4693   -1.6830 C   0  0  0  0  0  0
   -4.7677    1.2710   -0.7028 C   0  0  0  0  0  0
   -5.1174    0.6423    0.5222 C   0  0  0  0  0  0
   -6.4452    0.2213    0.7517 C   0  0  0  0  0  0
   -4.0401    0.4432    1.5531 C   0  0  0  0  0  0
   -4.2654   -0.0933    2.6368 O   0  0  0  0  0  0
   -2.8212    0.8939    1.1993 N   0  0  0  0  0  0
   -2.5660    1.5013   -0.0368 C   0  0  0  0  0  0
   -3.4530    1.7000   -0.9648 N   0  0  0  0  0  0
   -1.1098    1.9020   -0.1851 C   0  0  0  0  0  0
   -0.1726    0.6901   -0.3639 C   0  0  0  0  0  0
    1.2990    1.0920   -0.4995 C   0  0  0  0  0  0
    1.7496    2.0057    0.1921 O   0  0  0  0  0  0
    2.0172    0.3857   -1.3927 N   0  0  0  0  0  0
    3.3960    0.5090   -1.7076 C   0  0  0  0  0  0
    4.2344    1.3602   -1.1067 N   0  0  0  0  0  0
    5.5348    1.2536   -1.6050 C   0  0  0  0  0  0
    5.6755    0.3139   -2.5977 C   0  0  0  0  0  0
    4.1562   -0.4710   -2.9512 S   0  0  0  0  0  0
    6.9213   -0.0453   -3.3382 C   0  0  0  0  0  0
    7.2339    0.9518   -4.4376 C   0  0  0  0  0  0
    8.1342    2.0118   -4.2001 C   0  0  0  0  0  0
    8.4189    2.9400   -5.2205 C   0  0  0  0  0  0
    7.8041    2.8126   -6.4812 C   0  0  0  0  0  0
    6.9037    1.7561   -6.7214 C   0  0  0  0  0  0
    6.6193    0.8273   -5.7014 C   0  0  0  0  0  0
    6.3105    1.6320   -7.9324 F   0  0  0  0  0  0
    8.0791    3.7063   -7.4609 F   0  0  0  0  0  0
   -1.9742    0.7920    1.8936 H   0  0  0  0  0  0
   -8.3680    0.1269   -0.0743 H   0  0  0  0  0  0
   -7.7840    1.1929   -2.1528 H   0  0  0  0  0  0
   -5.5289    1.9113   -2.5493 H   0  0  0  0  0  0
   -6.6871   -0.2218    1.6149 H   0  0  0  0  0  0
   -0.9955    2.5487   -1.0676 H   0  0  0  0  0  0
   -0.7863    2.4476    0.7136 H   0  0  0  0  0  0
   -0.2604    0.0267    0.5091 H   0  0  0  0  0  0
   -0.4551    0.1390   -1.2730 H   0  0  0  0  0  0
    4.0079    2.0855   -0.3114 H   0  0  0  0  0  0
    6.3263    1.7857   -1.3045 H   0  0  0  0  0  0
    6.7846   -1.0445   -3.7775 H   0  0  0  0  0  0
    7.7535   -0.0715   -2.6195 H   0  0  0  0  0  0
    8.6071    2.1173   -3.2347 H   0  0  0  0  0  0
    9.1088    3.7501   -5.0356 H   0  0  0  0  0  0
    5.9264    0.0203   -5.8902 H   0  0  0  0  0  0
  1  6  1  0  0  0
  1  2  2  0  0  0
  1 32  1  0  0  0
  2  3  1  0  0  0
  2 33  1  0  0  0
  3  4  2  0  0  0
  3 34  1  0  0  0
  4 11  1  0  0  0
  4  5  1  0  0  0
  5  6  2  0  0  0
  5  7  1  0  0  0
  6 35  1  0  0  0
  7  8  2  0  0  0
  7  9  1  0  0  0
  9 31  1  0  0  0
  9 10  1  0  0  0
 10 11  2  0  0  0
 10 12  1  0  0  0
 12 13  1  0  0  0
 12 36  1  0  0  0
 12 37  1  0  0  0
 13 38  1  0  0  0
 13 39  1  0  0  0
 13 14  1  0  0  0
 14 16  1  0  0  0
 14 15  2  0  0  0
 16 17  2  0  0  0
 17 21  1  0  0  0
 17 18  1  0  0  0
 18 40  1  0  0  0
 18 19  1  0  0  0
 19 41  1  0  0  0
 19 20  2  0  0  0
 20 22  1  0  0  0
 20 21  1  0  0  0
 22 23  1  0  0  0
 22 42  1  0  0  0
 22 43  1  0  0  0
 23 28  1  0  0  0
 23 24  2  0  0  0
 24 25  1  0  0  0
 24 44  1  0  0  0
 25 26  2  0  0  0
 25 45  1  0  0  0
 26 27  1  0  0  0
 26 30  1  0  0  0
 27 28  2  0  0  0
 27 29  1  0  0  0
 28 46  1  0  0  0
M  END
> <s_m_source_file>
SM18.smi

> <i_m_source_file_index>
1

> <i_lp_mmshare_version>
40011

> <i_f3d_flags>
0

> <s_lp_Force_Field>
OPLS_2005

> <r_lp_Energy>
17.4490160392642

> <b_lp_Chiralities_Consistent>
1

> <s_lp_Variant>
SM18-1

> <s_epik_input>
W2NIXTFbY0hdW2NIXVtjSF1jKGMxMiljKD1PKVtuSF1jKG4yKVtDSDJdW0NIMl1DKD1PKVtOSF1jM25bY0hdYyhzMylbQ0gyXWM0W2NIXVtjSF1jKEYpYyhGKVtjSF00

> <s_epik_cmdline>
J2VwaWtfYXBwJywgJy1pbWFlJywgJ1NNMTguMy42Lm1hZScsICctb21hZScsICdTTTE4LmVwaWsuMy42Lm1hZScsICctcCcsICcwLjAwMDA0NTM5OTkyOTgnLCAnLXBoJywgJzMuNic=

> <r_lp_tautomer_probability>
0.000441748120917748

> <r_epik_Ionization_Penalty>
  0.9278

> <r_epik_Ionization_Penalty_Charging>
  0.2515

> <r_epik_Ionization_Penalty_Neutral>
  0.6763

> <r_epik_State_Penalty>
  4.3848

> <r_epik_Charging_Adjusted_Penalty>
4.63627742652836

> <i_epik_Tot_Q>
0

> <i_epik_Tot_abs_Q>
0

$$$$
SM18
                    3D
 Structure written by MMmdl.
 46 49  0  0  1  0            999 V2000
   -6.8467   -1.2915    1.6330 C   0  0  0  0  0  0
   -5.9153   -1.8011    2.5574 C   0  0  0  0  0  0
   -4.5708   -1.9833    2.1794 C   0  0  0  0  0  0
   -4.1453   -1.6579    0.8748 C   0  0  0  0  0  0
   -5.0893   -1.1450   -0.0546 C   0  0  0  0  0  0
   -6.4362   -0.9633    0.3269 C   0  0  0  0  0  0
   -4.6121   -0.8068   -1.4406 C   0  0  0  0  0  0
   -5.3693   -0.3582   -2.2999 O   0  0  0  0  0  0
   -3.3030   -1.0314   -1.6642 N   0  0  0  0  0  0
   -2.4417   -1.5388   -0.6832 C   0  0  0  0  0  0
   -2.7945   -1.8484    0.5280 N   0  0  0  0  0  0
   -1.0193   -1.6820   -1.1924 C   0  0  0  0  0  0
   -0.3159   -0.3233   -1.3883 C   0  0  0  0  0  0
    1.1149   -0.4656   -1.9157 C   0  0  0  0  0  0
    1.3705   -1.3161   -2.7686 O   0  0  0  0  0  0
    2.0172    0.3857   -1.3927 N   0  0  0  0  0  0
    3.3960    0.5090   -1.7076 C   0  0  0  0  0  0
    4.2344    1.3602   -1.1067 N   0  0  0  0  0  0
    5.5348    1.2536   -1.6050 C   0  0  0  0  0  0
    5.6755    0.3139   -2.5977 C   0  0  0  0  0  0
    4.1562   -0.4710   -2.9512 S   0  0  0  0  0  0
    6.9213   -0.0453   -3.3382 C   0  0  0  0  0  0
    7.2339    0.9518   -4.4376 C   0  0  0  0  0  0
    8.1342    2.0118   -4.2001 C   0  0  0  0  0  0
    8.4189    2.9400   -5.2205 C   0  0  0  0  0  0
    7.8041    2.8126   -6.4812 C   0  0  0  0  0  0
    6.9037    1.7561   -6.7214 C   0  0  0  0  0  0
    6.6193    0.8273   -5.7014 C   0  0  0  0  0  0
    6.3105    1.6320   -7.9324 F   0  0  0  0  0  0
    8.0791    3.7063   -7.4609 F   0  0  0  0  0  0
   -2.8686   -0.8148   -2.6513 H   0  0  0  0  0  0
   -7.8008   -1.1630    1.9037 H   0  0  0  0  0  0
   -6.2076   -2.0341    3.4849 H   0  0  0  0  0  0
   -3.9164   -2.3459    2.8429 H   0  0  0  0  0  0
   -7.0975   -0.6010   -0.3300 H   0  0  0  0  0  0
   -0.4285   -2.2656   -0.4710 H   0  0  0  0  0  0
   -1.0276   -2.1994   -2.1631 H   0  0  0  0  0  0
   -0.8819    0.2816   -2.1120 H   0  0  0  0  0  0
   -0.2676    0.2068   -0.4257 H   0  0  0  0  0  0
    4.0079    2.0855   -0.3114 H   0  0  0  0  0  0
    6.3263    1.7857   -1.3045 H   0  0  0  0  0  0
    6.7846   -1.0445   -3.7775 H   0  0  0  0  0  0
    7.7535   -0.0715   -2.6195 H   0  0  0  0  0  0
    8.6071    2.1173   -3.2347 H   0  0  0  0  0  0
    9.1088    3.7501   -5.0356 H   0  0  0  0  0  0
    5.9264    0.0203   -5.8902 H   0  0  0  0  0  0
  1  6  1  0  0  0
  1  2  2  0  0  0
  1 32  1  0  0  0
  2  3  1  0  0  0
  2 33  1  0  0  0
  3  4  2  0  0  0
  3 34  1  0  0  0
  4 11  1  0  0  0
  4  5  1  0  0  0
  5  6  2  0  0  0
  5  7  1  0  0  0
  6 35  1  0  0  0
  7  8  2  0  0  0
  7  9  1  0  0  0
  9 31  1  0  0  0
  9 10  1  0  0  0
 10 11  2  0  0  0
 10 12  1  0  0  0
 12 13  1  0  0  0
 12 36  1  0  0  0
 12 37  1  0  0  0
 13 38  1  0  0  0
 13 39  1  0  0  0
 13 14  1  0  0  0
 14 16  1  0  0  0
 14 15  2  0  0  0
 16 17  2  0  0  0
 17 21  1  0  0  0
 17 18  1  0  0  0
 18 40  1  0  0  0
 18 19  1  0  0  0
 19 41  1  0  0  0
 19 20  2  0  0  0
 20 22  1  0  0  0
 20 21  1  0  0  0
 22 23  1  0  0  0
 22 42  1  0  0  0
 22 43  1  0  0  0
 23 28  1  0  0  0
 23 24  2  0  0  0
 24 25  1  0  0  0
 24 44  1  0  0  0
 25 26  2  0  0  0
 25 45  1  0  0  0
 26 27  1  0  0  0
 26 30  1  0  0  0
 27 28  2  0  0  0
 27 29  1  0  0  0
 28 46  1  0  0  0
M  END
> <s_m_source_file>
SM18.smi

> <i_m_source_file_index>
1

> <i_lp_mmshare_version>
40011

> <i_f3d_flags>
0

> <s_lp_Force_Field>
OPLS_2005

> <r_lp_Energy>
17.4490160392642

> <b_lp_Chiralities_Consistent>
1

> <s_lp_Variant>
SM18-1

> <s_epik_input>
W2NIXTFbY0hdW2NIXVtjSF1jKGMxMiljKD1PKVtuSF1jKG4yKVtDSDJdW0NIMl1DKD1PKVtOSF1jM25bY0hdYyhzMylbQ0gyXWM0W2NIXVtjSF1jKEYpYyhGKVtjSF00

> <s_epik_cmdline>
J2VwaWtfYXBwJywgJy1pbWFlJywgJ1NNMTguMy42Lm1hZScsICctb21hZScsICdTTTE4LmVwaWsuMy42Lm1hZScsICctcCcsICcwLjAwMDA0NTM5OTkyOTgnLCAnLXBoJywgJzMuNic=

> <r_lp_tautomer_probability>
0.000441748120917748

> <r_epik_Ionization_Penalty>
  0.9278

> <r_epik_Ionization_Penalty_Charging>
  0.2515

> <r_epik_Ionization_Penalty_Neutral>
  0.6763

> <r_epik_State_Penalty>
  4.3848

> <r_epik_Charging_Adjusted_Penalty>
4.63627742652836

> <i_epik_Tot_Q>
0

> <i_epik_Tot_abs_Q>
0

$$$$
SM18
                    3D
 Structure written by MMmdl.
 47 50  0  0  1  0            999 V2000
   -7.4312    0.4498   -0.2607 C   0  0  0  0  0  0
   -7.0864    1.0729   -1.4751 C   0  0  0  0  0  0
   -5.7613    1.4918   -1.7038 C   0  0  0  0  0  0
   -4.7692    1.2912   -0.7218 C   0  0  0  0  0  0
   -5.1225    0.6629    0.5024 C   0  0  0  0  0  0
   -6.4515    0.2442    0.7292 C   0  0  0  0  0  0
   -4.0475    0.4613    1.5353 C   0  0  0  0  0  0
   -4.2758   -0.0750    2.6184 O   0  0  0  0  0  0
   -2.8278    0.9129    1.1852 N   0  0  0  0  0  0
   -2.5691    1.5200   -0.0503 C   0  0  0  0  0  0
   -3.4536    1.7192   -0.9805 N   0  0  0  0  0  0
   -1.1145    1.9294   -0.1907 C   0  0  0  0  0  0
   -0.1688    0.7230   -0.3622 C   0  0  0  0  0  0
    1.3011    1.1337   -0.4897 C   0  0  0  0  0  0
    1.7420    2.0512    0.2030 O   0  0  0  0  0  0
    2.0287    0.4305   -1.3776 N   0  0  0  0  0  0
    3.4086    0.5618   -1.6847 C   0  0  0  0  0  0
    4.2412    1.4093   -1.0707 N   0  3  0  0  0  0
    5.5438    1.3142   -1.5656 C   0  0  0  0  0  0
    5.6933    0.3827   -2.5647 C   0  0  0  0  0  0
    4.1821   -0.4154   -2.9223 S   0  0  0  0  0  0
    6.9435    0.0365   -3.3039 C   0  0  0  0  0  0
    7.2535    1.0436   -4.3949 C   0  0  0  0  0  0
    8.1466    2.1072   -4.1468 C   0  0  0  0  0  0
    8.4289    3.0446   -5.1594 C   0  0  0  0  0  0
    7.8189    2.9228   -6.4230 C   0  0  0  0  0  0
    6.9257    1.8626   -6.6738 C   0  0  0  0  0  0
    6.6437    0.9247   -5.6616 C   0  0  0  0  0  0
    6.3370    1.7438   -7.8876 F   0  0  0  0  0  0
    8.0916    3.8253   -7.3952 F   0  0  0  0  0  0
   -3.2103    2.2002   -1.9394 H   0  0  0  0  0  0
   -8.3729    0.1532   -0.1014 H   0  0  0  0  0  0
   -7.7847    1.2180   -2.1760 H   0  0  0  0  0  0
   -5.5188    1.9342   -2.5672 H   0  0  0  0  0  0
   -6.6973   -0.1981    1.5917 H   0  0  0  0  0  0
   -0.8340    2.4895    0.7136 H   0  0  0  0  0  0
   -1.0334    2.5867   -1.0690 H   0  0  0  0  0  0
   -0.2577    0.0604    0.5113 H   0  0  0  0  0  0
   -0.4427    0.1688   -1.2721 H   0  0  0  0  0  0
    1.5529   -0.3620   -1.9739 H   0  0  0  0  0  0
    6.3309    1.8496   -1.2593 H   0  0  0  0  0  0
    7.7907    0.0172   -2.6026 H   0  0  0  0  0  0
    6.8314   -0.9531   -3.7708 H   0  0  0  0  0  0
    8.6159    2.2085   -3.1792 H   0  0  0  0  0  0
    9.1133    3.8574   -4.9664 H   0  0  0  0  0  0
    5.9563    0.1149   -5.8585 H   0  0  0  0  0  0
    3.8651    2.0719   -0.2773 H   0  0  0  0  0  0
  1  6  2  0  0  0
  1 32  1  0  0  0
  1  2  1  0  0  0
  2 33  1  0  0  0
  2  3  2  0  0  0
  3 34  1  0  0  0
  3  4  1  0  0  0
  4  5  2  0  0  0
  4 11  1  0  0  0
  5  7  1  0  0  0
  5  6  1  0  0  0
  6 35  1  0  0  0
  7  8  2  0  0  0
  7  9  1  0  0  0
  9 10  2  0  0  0
 10 11  1  0  0  0
 10 12  1  0  0  0
 11 31  1  0  0  0
 12 13  1  0  0  0
 12 36  1  0  0  0
 12 37  1  0  0  0
 13 14  1  0  0  0
 13 38  1  0  0  0
 13 39  1  0  0  0
 14 15  2  0  0  0
 14 16  1  0  0  0
 16 17  1  0  0  0
 16 40  1  0  0  0
 17 21  1  0  0  0
 17 18  2  0  0  0
 18 19  1  0  0  0
 18 47  1  0  0  0
 19 20  2  0  0  0
 19 41  1  0  0  0
 20 21  1  0  0  0
 20 22  1  0  0  0
 22 23  1  0  0  0
 22 42  1  0  0  0
 22 43  1  0  0  0
 23 28  1  0  0  0
 23 24  2  0  0  0
 24 25  1  0  0  0
 24 44  1  0  0  0
 25 26  2  0  0  0
 25 45  1  0  0  0
 26 27  1  0  0  0
 26 30  1  0  0  0
 27 28  2  0  0  0
 27 29  1  0  0  0
 28 46  1  0  0  0
M  CHG  1  18   1
M  END
> <s_m_source_file>
SM18.smi

> <i_m_source_file_index>
1

> <i_lp_mmshare_version>
40011

> <i_f3d_flags>
0

> <s_lp_Force_Field>
OPLS_2005

> <r_lp_Energy>
17.4490160392642

> <b_lp_Chiralities_Consistent>
1

> <s_lp_Variant>
SM18-1

> <s_epik_input>
W2NIXTFbY0hdW2NIXVtjSF1jKGMxMiljKD1PKVtuSF1jKG4yKVtDSDJdW0NIMl1DKD1PKVtOSF1jM25bY0hdYyhzMylbQ0gyXWM0W2NIXVtjSF1jKEYpYyhGKVtjSF00

> <s_epik_cmdline>
J2VwaWtfYXBwJywgJy1pbWFlJywgJ1NNMTguMy42Lm1hZScsICctb21hZScsICdTTTE4LmVwaWsuMy42Lm1hZScsICctcCcsICcwLjAwMDA0NTM5OTkyOTgnLCAnLXBoJywgJzMuNic=

> <r_lp_tautomer_probability>
0.116051

> <r_epik_Ionization_Penalty>
  2.2362

> <r_epik_Ionization_Penalty_Charging>
  1.5780

> <r_epik_Ionization_Penalty_Neutral>
  0.6582

> <r_epik_State_Penalty>
  5.5886

> <r_epik_Charging_Adjusted_Penalty>
7.16663810467524

> <i_epik_Tot_Q>
1

> <i_epik_Tot_abs_Q>
1

$$$$
SM18
                    3D
 Structure written by MMmdl.
 46 49  0  0  1  0            999 V2000
   -7.4271    0.4245   -0.2365 C   0  0  0  0  0  0
   -7.0857    1.0479   -1.4517 C   0  0  0  0  0  0
   -5.7619    1.4694   -1.6830 C   0  0  0  0  0  0
   -4.7676    1.2710   -0.7027 C   0  0  0  0  0  0
   -5.1174    0.6424    0.5223 C   0  0  0  0  0  0
   -6.4451    0.2211    0.7516 C   0  0  0  0  0  0
   -4.0401    0.4433    1.5532 C   0  0  0  0  0  0
   -4.2653   -0.0932    2.6369 O   0  0  0  0  0  0
   -2.8219    0.8972    1.2007 N   0  0  0  0  0  0
   -2.5666    1.5044   -0.0354 C   0  0  0  0  0  0
   -3.4533    1.7016   -0.9641 N   0  0  0  0  0  0
   -1.1132    1.9166   -0.1786 C   0  0  0  0  0  0
   -0.1654    0.7120   -0.3515 C   0  0  0  0  0  0
    1.3034    1.1256   -0.4818 C   0  0  0  0  0  0
    1.7438    2.0442    0.2098 O   0  0  0  0  0  0
    2.0309    0.4236   -1.3709 N   0  0  0  0  0  0
    3.4099    0.5576   -1.6805 C   0  0  0  0  0  0
    4.2389    1.4166   -1.0778 N   0  0  0  0  0  0
    5.5421    1.3196   -1.5707 C   0  0  0  0  0  0
    5.6944    0.3793   -2.5611 C   0  0  0  0  0  0
    4.1830   -0.4185   -2.9193 S   0  0  0  0  0  0
    6.9461    0.0290   -3.2960 C   0  0  0  0  0  0
    7.2550    1.0266   -4.3959 C   0  0  0  0  0  0
    8.1457    2.0943   -4.1567 C   0  0  0  0  0  0
    8.4270    3.0229   -5.1776 C   0  0  0  0  0  0
    7.8183    2.8884   -6.4406 C   0  0  0  0  0  0
    6.9275    1.8241   -6.6825 C   0  0  0  0  0  0
    6.6465    0.8949   -5.6619 C   0  0  0  0  0  0
    6.3401    1.6930   -7.8956 F   0  0  0  0  0  0
    8.0900    3.7825   -7.4208 F   0  0  0  0  0  0
   -3.2127    2.1828   -1.9235 H   0  0  0  0  0  0
   -8.3678    0.1261   -0.0754 H   0  0  0  0  0  0
   -7.7856    1.1915   -2.1514 H   0  0  0  0  0  0
   -5.5218    1.9121   -2.5469 H   0  0  0  0  0  0
   -6.6884   -0.2213    1.6148 H   0  0  0  0  0  0
   -0.8321    2.4775    0.7250 H   0  0  0  0  0  0
   -1.0350    2.5738   -1.0572 H   0  0  0  0  0  0
   -0.2513    0.0495    0.5224 H   0  0  0  0  0  0
   -0.4399    0.1571   -1.2607 H   0  0  0  0  0  0
    4.0033    2.1415   -0.2847 H   0  0  0  0  0  0
    6.3281    1.8587   -1.2679 H   0  0  0  0  0  0
    6.8193   -0.9721   -3.7340 H   0  0  0  0  0  0
    7.7756    0.0108   -2.5738 H   0  0  0  0  0  0
    8.6139    2.2054   -3.1896 H   0  0  0  0  0  0
    9.1095    3.8390   -4.9914 H   0  0  0  0  0  0
    5.9610    0.0819   -5.8520 H   0  0  0  0  0  0
  1  6  2  0  0  0
  1 32  1  0  0  0
  1  2  1  0  0  0
  2 33  1  0  0  0
  2  3  2  0  0  0
  3 34  1  0  0  0
  3  4  1  0  0  0
  4  5  2  0  0  0
  4 11  1  0  0  0
  5  7  1  0  0  0
  5  6  1  0  0  0
  6 35  1  0  0  0
  7  8  2  0  0  0
  7  9  1  0  0  0
  9 10  2  0  0  0
 10 11  1  0  0  0
 10 12  1  0  0  0
 11 31  1  0  0  0
 12 13  1  0  0  0
 12 36  1  0  0  0
 12 37  1  0  0  0
 13 38  1  0  0  0
 13 39  1  0  0  0
 13 14  1  0  0  0
 14 16  1  0  0  0
 14 15  2  0  0  0
 16 17  2  0  0  0
 17 21  1  0  0  0
 17 18  1  0  0  0
 18 40  1  0  0  0
 18 19  1  0  0  0
 19 41  1  0  0  0
 19 20  2  0  0  0
 20 22  1  0  0  0
 20 21  1  0  0  0
 22 23  1  0  0  0
 22 42  1  0  0  0
 22 43  1  0  0  0
 23 28  1  0  0  0
 23 24  2  0  0  0
 24 25  1  0  0  0
 24 44  1  0  0  0
 25 26  2  0  0  0
 25 45  1  0  0  0
 26 27  1  0  0  0
 26 30  1  0  0  0
 27 28  2  0  0  0
 27 29  1  0  0  0
 28 46  1  0  0  0
M  END
> <s_m_source_file>
SM18.smi

> <i_m_source_file_index>
1

> <i_lp_mmshare_version>
40011

> <i_f3d_flags>
0

> <s_lp_Force_Field>
OPLS_2005

> <r_lp_Energy>
17.4490160392642

> <b_lp_Chiralities_Consistent>
1

> <s_lp_Variant>
SM18-1

> <s_epik_input>
W2NIXTFbY0hdW2NIXVtjSF1jKGMxMiljKD1PKVtuSF1jKG4yKVtDSDJdW0NIMl1DKD1PKVtOSF1jM25bY0hdYyhzMylbQ0gyXWM0W2NIXVtjSF1jKEYpYyhGKVtjSF00

> <s_epik_cmdline>
J2VwaWtfYXBwJywgJy1pbWFlJywgJ1NNMTguMy42Lm1hZScsICctb21hZScsICdTTTE4LmVwaWsuMy42Lm1hZScsICctcCcsICcwLjAwMDA0NTM5OTkyOTgnLCAnLXBoJywgJzMuNic=

> <r_lp_tautomer_probability>
5.79965010901507e-05

> <r_epik_Ionization_Penalty>
  0.9797

> <r_epik_Ionization_Penalty_Charging>
  0.2515

> <r_epik_Ionization_Penalty_Neutral>
  0.7282

> <r_epik_State_Penalty>
  5.6704

> <r_epik_Charging_Adjusted_Penalty>
5.92186155829678

> <i_epik_Tot_Q>
0

> <i_epik_Tot_abs_Q>
0

$$$$
SM18
                    3D
 Structure written by MMmdl.
 46 49  0  0  1  0            999 V2000
   -6.8393   -1.3580    1.6101 C   0  0  0  0  0  0
   -5.9073   -1.8577    2.5393 C   0  0  0  0  0  0
   -4.5577   -2.0194    2.1703 C   0  0  0  0  0  0
   -4.1274   -1.6827    0.8702 C   0  0  0  0  0  0
   -5.0720   -1.1798   -0.0641 C   0  0  0  0  0  0
   -6.4241   -1.0189    0.3082 C   0  0  0  0  0  0
   -4.5897   -0.8292   -1.4453 C   0  0  0  0  0  0
   -5.3470   -0.3882   -2.3084 O   0  0  0  0  0  0
   -3.2765   -1.0371   -1.6612 N   0  0  0  0  0  0
   -2.4151   -1.5358   -0.6758 C   0  0  0  0  0  0
   -2.7719   -1.8538    0.5321 N   0  0  0  0  0  0
   -0.9895   -1.6683   -1.1791 C   0  0  0  0  0  0
   -0.2964   -0.3043   -1.3746 C   0  0  0  0  0  0
    1.1376   -0.4359   -1.8960 C   0  0  0  0  0  0
    1.4036   -1.2858   -2.7463 O   0  0  0  0  0  0
    2.0309    0.4236   -1.3709 N   0  0  0  0  0  0
    3.4099    0.5576   -1.6805 C   0  0  0  0  0  0
    4.2389    1.4166   -1.0778 N   0  0  0  0  0  0
    5.5421    1.3196   -1.5707 C   0  0  0  0  0  0
    5.6944    0.3793   -2.5611 C   0  0  0  0  0  0
    4.1830   -0.4185   -2.9193 S   0  0  0  0  0  0
    6.9461    0.0290   -3.2960 C   0  0  0  0  0  0
    7.2550    1.0266   -4.3959 C   0  0  0  0  0  0
    8.1457    2.0943   -4.1567 C   0  0  0  0  0  0
    8.4270    3.0229   -5.1776 C   0  0  0  0  0  0
    7.8183    2.8884   -6.4406 C   0  0  0  0  0  0
    6.9275    1.8241   -6.6825 C   0  0  0  0  0  0
    6.6465    0.8949   -5.6619 C   0  0  0  0  0  0
    6.3401    1.6930   -7.8956 F   0  0  0  0  0  0
    8.0900    3.7825   -7.4208 F   0  0  0  0  0  0
   -2.0637   -2.2428    1.2785 H   0  0  0  0  0  0
   -7.7967   -1.2441    1.8752 H   0  0  0  0  0  0
   -6.2054   -2.0982    3.4631 H   0  0  0  0  0  0
   -3.8975   -2.3746    2.8321 H   0  0  0  0  0  0
   -7.0868   -0.6645   -0.3515 H   0  0  0  0  0  0
   -1.0202   -2.2049   -2.1388 H   0  0  0  0  0  0
   -0.4274   -2.2633   -0.4442 H   0  0  0  0  0  0
   -0.8643    0.2947   -2.1016 H   0  0  0  0  0  0
   -0.2563    0.2279   -0.4127 H   0  0  0  0  0  0
    4.0033    2.1415   -0.2847 H   0  0  0  0  0  0
    6.3281    1.8587   -1.2679 H   0  0  0  0  0  0
    6.8193   -0.9721   -3.7340 H   0  0  0  0  0  0
    7.7756    0.0108   -2.5738 H   0  0  0  0  0  0
    8.6139    2.2054   -3.1896 H   0  0  0  0  0  0
    9.1095    3.8390   -4.9914 H   0  0  0  0  0  0
    5.9610    0.0819   -5.8520 H   0  0  0  0  0  0
  1  6  2  0  0  0
  1 32  1  0  0  0
  1  2  1  0  0  0
  2 33  1  0  0  0
  2  3  2  0  0  0
  3 34  1  0  0  0
  3  4  1  0  0  0
  4  5  2  0  0  0
  4 11  1  0  0  0
  5  7  1  0  0  0
  5  6  1  0  0  0
  6 35  1  0  0  0
  7  8  2  0  0  0
  7  9  1  0  0  0
  9 10  2  0  0  0
 10 11  1  0  0  0
 10 12  1  0  0  0
 11 31  1  0  0  0
 12 13  1  0  0  0
 12 36  1  0  0  0
 12 37  1  0  0  0
 13 38  1  0  0  0
 13 39  1  0  0  0
 13 14  1  0  0  0
 14 16  1  0  0  0
 14 15  2  0  0  0
 16 17  2  0  0  0
 17 21  1  0  0  0
 17 18  1  0  0  0
 18 40  1  0  0  0
 18 19  1  0  0  0
 19 41  1  0  0  0
 19 20  2  0  0  0
 20 22  1  0  0  0
 20 21  1  0  0  0
 22 23  1  0  0  0
 22 42  1  0  0  0
 22 43  1  0  0  0
 23 28  1  0  0  0
 23 24  2  0  0  0
 24 25  1  0  0  0
 24 44  1  0  0  0
 25 26  2  0  0  0
 25 45  1  0  0  0
 26 27  1  0  0  0
 26 30  1  0  0  0
 27 28  2  0  0  0
 27 29  1  0  0  0
 28 46  1  0  0  0
M  END
> <s_m_source_file>
SM18.smi

> <i_m_source_file_index>
1

> <i_lp_mmshare_version>
40011

> <i_f3d_flags>
0

> <s_lp_Force_Field>
OPLS_2005

> <r_lp_Energy>
17.4490160392642

> <b_lp_Chiralities_Consistent>
1

> <s_lp_Variant>
SM18-1

> <s_epik_input>
W2NIXTFbY0hdW2NIXVtjSF1jKGMxMiljKD1PKVtuSF1jKG4yKVtDSDJdW0NIMl1DKD1PKVtOSF1jM25bY0hdYyhzMylbQ0gyXWM0W2NIXVtjSF1jKEYpYyhGKVtjSF00

> <s_epik_cmdline>
J2VwaWtfYXBwJywgJy1pbWFlJywgJ1NNMTguMy42Lm1hZScsICctb21hZScsICdTTTE4LmVwaWsuMy42Lm1hZScsICctcCcsICcwLjAwMDA0NTM5OTkyOTgnLCAnLXBoJywgJzMuNic=

> <r_lp_tautomer_probability>
5.79965010901507e-05

> <r_epik_Ionization_Penalty>
  0.9797

> <r_epik_Ionization_Penalty_Charging>
  0.2515

> <r_epik_Ionization_Penalty_Neutral>
  0.7282

> <r_epik_State_Penalty>
  5.6704

> <r_epik_Charging_Adjusted_Penalty>
5.92186155829678

> <i_epik_Tot_Q>
0

> <i_epik_Tot_abs_Q>
0

$$$$
