SM09
                    3D
 Structure written by MMmdl.
 33 35  0  0  1  0            999 V2000
   -0.8562    0.2850    0.8731 C   0  0  0  0  0  0
    0.0799   -0.7094    0.4831 O   0  0  0  0  0  0
    1.3593   -0.3078    0.1623 C   0  0  0  0  0  0
    2.2736   -1.3175   -0.1988 C   0  0  0  0  0  0
    3.5961   -0.9947   -0.5533 C   0  0  0  0  0  0
    4.0206    0.3462   -0.5412 C   0  0  0  0  0  0
    3.1316    1.3727   -0.1646 C   0  0  0  0  0  0
    1.7970    1.0412    0.1695 C   0  0  0  0  0  0
    3.6059    2.6944   -0.1868 N   0  0  0  0  0  0
    3.2401    3.7935    0.6117 C   0  0  0  0  0  0
    3.7022    5.0995    0.2972 C   0  0  0  0  0  0
    4.5173    5.3753   -0.8258 C   0  0  0  0  0  0
    4.9407    6.6918   -1.0848 C   0  0  0  0  0  0
    4.5541    7.7364   -0.2262 C   0  0  0  0  0  0
    3.7429    7.4655    0.8918 C   0  0  0  0  0  0
    3.3068    6.1531    1.1701 C   0  0  0  0  0  0
    2.5294    5.8988    2.2460 N   0  3  0  0  0  0
    2.1570    4.6359    2.4539 C   0  0  0  0  0  0
    2.4707    3.5795    1.7042 N   0  0  0  0  0  0
   -1.8237   -0.1891    1.0952 H   0  0  0  0  0  0
   -0.9824    1.0104    0.0558 H   0  0  0  0  0  0
   -0.4876    0.8039    1.7702 H   0  0  0  0  0  0
    1.9558   -2.3498   -0.2102 H   0  0  0  0  0  0
    4.2854   -1.7768   -0.8354 H   0  0  0  0  0  0
    5.0385    0.5826   -0.8161 H   0  0  0  0  0  0
    1.1085    1.8340    0.4147 H   0  0  0  0  0  0
    4.3803    2.9887   -0.9105 H   0  0  0  0  0  0
    4.8250    4.5891   -1.4989 H   0  0  0  0  0  0
    5.5626    6.9005   -1.9431 H   0  0  0  0  0  0
    4.8794    8.7470   -0.4247 H   0  0  0  0  0  0
    3.4522    8.2757    1.5444 H   0  0  0  0  0  0
    1.5388    4.4489    3.3194 H   0  0  0  0  0  0
    2.2269    6.7200    2.9124 H   0  0  0  0  0  0
  1  2  1  0  0  0
  1 20  1  0  0  0
  1 21  1  0  0  0
  1 22  1  0  0  0
  2  3  1  0  0  0
  3  8  1  0  0  0
  3  4  2  0  0  0
  4  5  1  0  0  0
  4 23  1  0  0  0
  5  6  2  0  0  0
  5 24  1  0  0  0
  6  7  1  0  0  0
  6 25  1  0  0  0
  7  8  2  0  0  0
  7  9  1  0  0  0
  8 26  1  0  0  0
  9 10  1  0  0  0
  9 27  1  0  0  0
 10 19  1  0  0  0
 10 11  2  0  0  0
 11 16  1  0  0  0
 11 12  1  0  0  0
 12 13  2  0  0  0
 12 28  1  0  0  0
 13 14  1  0  0  0
 13 29  1  0  0  0
 14 15  2  0  0  0
 14 30  1  0  0  0
 15 16  1  0  0  0
 15 31  1  0  0  0
 16 17  2  0  0  0
 17 18  1  0  0  0
 17 33  1  0  0  0
 18 19  2  0  0  0
 18 32  1  0  0  0
M  CHG  1  17   1
M  END
> <s_m_source_file>
SM09.smi

> <i_m_source_file_index>
1

> <i_lp_mmshare_version>
40011

> <i_f3d_flags>
0

> <s_lp_Force_Field>
OPLS_2005

> <r_lp_Energy>
18.1729598606531

> <b_lp_Chiralities_Consistent>
1

> <s_lp_Variant>
SM09-1

> <s_epik_input>
W0NIM11PYzFbY0hdW2NIXVtjSF1jKFtjSF0xKVtOSF1jMm5bY0hdbmMoYzIzKVtjSF1bY0hdW2NIXVtjSF0z

> <s_epik_cmdline>
J2VwaWtfYXBwJywgJy1pbWFlJywgJ1NNMDkuMy40Lm1hZScsICctb21hZScsICdTTTA5LmVwaWsuMy40Lm1hZScsICctcCcsICcwLjAwMDA0NTM5OTkyOTgnLCAnLXBoJywgJzMuNCc=

> <r_lp_tautomer_probability>
0.993507999998615

> <r_epik_Ionization_Penalty>
  0.1198

> <r_epik_Ionization_Penalty_Charging>
  0.1198

> <r_epik_Ionization_Penalty_Neutral>
  0.0000

> <r_epik_State_Penalty>
  0.0404

> <r_epik_Charging_Adjusted_Penalty>
0.160251767030989

> <i_epik_Tot_Q>
1

> <i_epik_Tot_abs_Q>
1

$$$$
SM09
                    3D
 Structure written by MMmdl.
 32 34  0  0  1  0            999 V2000
   -0.8562    0.2850    0.8731 C   0  0  0  0  0  0
    0.0799   -0.7094    0.4831 O   0  0  0  0  0  0
    1.3593   -0.3078    0.1623 C   0  0  0  0  0  0
    2.2736   -1.3175   -0.1988 C   0  0  0  0  0  0
    3.5961   -0.9947   -0.5533 C   0  0  0  0  0  0
    4.0206    0.3462   -0.5412 C   0  0  0  0  0  0
    3.1316    1.3727   -0.1646 C   0  0  0  0  0  0
    1.7970    1.0412    0.1695 C   0  0  0  0  0  0
    3.6059    2.6944   -0.1868 N   0  0  0  0  0  0
    3.2401    3.7935    0.6117 C   0  0  0  0  0  0
    3.7022    5.0995    0.2972 C   0  0  0  0  0  0
    4.5173    5.3753   -0.8258 C   0  0  0  0  0  0
    4.9407    6.6918   -1.0848 C   0  0  0  0  0  0
    4.5541    7.7364   -0.2262 C   0  0  0  0  0  0
    3.7429    7.4655    0.8918 C   0  0  0  0  0  0
    3.3068    6.1531    1.1701 C   0  0  0  0  0  0
    2.5294    5.8988    2.2460 N   0  0  0  0  0  0
    2.1570    4.6359    2.4539 C   0  0  0  0  0  0
    2.4707    3.5795    1.7042 N   0  0  0  0  0  0
   -1.8237   -0.1891    1.0952 H   0  0  0  0  0  0
   -0.9824    1.0104    0.0558 H   0  0  0  0  0  0
   -0.4876    0.8039    1.7702 H   0  0  0  0  0  0
    1.9558   -2.3498   -0.2102 H   0  0  0  0  0  0
    4.2854   -1.7768   -0.8354 H   0  0  0  0  0  0
    5.0385    0.5826   -0.8161 H   0  0  0  0  0  0
    1.1085    1.8340    0.4147 H   0  0  0  0  0  0
    4.3803    2.9887   -0.9105 H   0  0  0  0  0  0
    4.8250    4.5891   -1.4989 H   0  0  0  0  0  0
    5.5626    6.9005   -1.9431 H   0  0  0  0  0  0
    4.8794    8.7470   -0.4247 H   0  0  0  0  0  0
    3.4522    8.2757    1.5444 H   0  0  0  0  0  0
    1.5388    4.4489    3.3194 H   0  0  0  0  0  0
  1  2  1  0  0  0
  1 20  1  0  0  0
  1 21  1  0  0  0
  1 22  1  0  0  0
  2  3  1  0  0  0
  3  8  1  0  0  0
  3  4  2  0  0  0
  4  5  1  0  0  0
  4 23  1  0  0  0
  5  6  2  0  0  0
  5 24  1  0  0  0
  6  7  1  0  0  0
  6 25  1  0  0  0
  7  8  2  0  0  0
  7  9  1  0  0  0
  8 26  1  0  0  0
  9 10  1  0  0  0
  9 27  1  0  0  0
 10 19  1  0  0  0
 10 11  2  0  0  0
 11 16  1  0  0  0
 11 12  1  0  0  0
 12 13  2  0  0  0
 12 28  1  0  0  0
 13 14  1  0  0  0
 13 29  1  0  0  0
 14 15  2  0  0  0
 14 30  1  0  0  0
 15 16  1  0  0  0
 15 31  1  0  0  0
 16 17  2  0  0  0
 17 18  1  0  0  0
 18 19  2  0  0  0
 18 32  1  0  0  0
M  END
> <s_m_source_file>
SM09.smi

> <i_m_source_file_index>
1

> <i_lp_mmshare_version>
40011

> <i_f3d_flags>
0

> <s_lp_Force_Field>
OPLS_2005

> <r_lp_Energy>
18.1729598606531

> <b_lp_Chiralities_Consistent>
1

> <s_lp_Variant>
SM09-1

> <s_epik_input>
W0NIM11PYzFbY0hdW2NIXVtjSF1jKFtjSF0xKVtOSF1jMm5bY0hdbmMoYzIzKVtjSF1bY0hdW2NIXVtjSF0z

> <s_epik_cmdline>
J2VwaWtfYXBwJywgJy1pbWFlJywgJ1NNMDkuMy40Lm1hZScsICctb21hZScsICdTTTA5LmVwaWsuMy40Lm1hZScsICctcCcsICcwLjAwMDA0NTM5OTkyOTgnLCAnLXBoJywgJzMuNCc=

> <r_lp_tautomer_probability>
0.999978000241998

> <r_epik_Ionization_Penalty>
  1.4964

> <r_epik_Ionization_Penalty_Charging>
  0.0000

> <r_epik_Ionization_Penalty_Neutral>
  1.4964

> <r_epik_State_Penalty>
  1.7843

> <r_epik_Charging_Adjusted_Penalty>
1.78434632198409

> <i_epik_Tot_Q>
0

> <i_epik_Tot_abs_Q>
0

$$$$
SM09
                    3D
 Structure written by MMmdl.
 33 35  0  0  1  0            999 V2000
   -0.8562    0.2850    0.8731 C   0  0  0  0  0  0
    0.0799   -0.7094    0.4831 O   0  0  0  0  0  0
    1.3593   -0.3078    0.1623 C   0  0  0  0  0  0
    2.2736   -1.3175   -0.1988 C   0  0  0  0  0  0
    3.5961   -0.9947   -0.5533 C   0  0  0  0  0  0
    4.0206    0.3462   -0.5412 C   0  0  0  0  0  0
    3.1316    1.3727   -0.1646 C   0  0  0  0  0  0
    1.7970    1.0412    0.1695 C   0  0  0  0  0  0
    3.6059    2.6944   -0.1868 N   0  0  0  0  0  0
    3.2401    3.7935    0.6117 C   0  0  0  0  0  0
    3.7022    5.0995    0.2972 C   0  0  0  0  0  0
    4.5173    5.3753   -0.8258 C   0  0  0  0  0  0
    4.9407    6.6918   -1.0848 C   0  0  0  0  0  0
    4.5541    7.7364   -0.2262 C   0  0  0  0  0  0
    3.7429    7.4655    0.8918 C   0  0  0  0  0  0
    3.3068    6.1531    1.1701 C   0  0  0  0  0  0
    2.5294    5.8988    2.2460 N   0  0  0  0  0  0
    2.1570    4.6359    2.4539 C   0  0  0  0  0  0
    2.4707    3.5795    1.7042 N   0  3  0  0  0  0
   -1.8237   -0.1891    1.0952 H   0  0  0  0  0  0
   -0.9824    1.0104    0.0558 H   0  0  0  0  0  0
   -0.4876    0.8039    1.7702 H   0  0  0  0  0  0
    1.9558   -2.3498   -0.2102 H   0  0  0  0  0  0
    4.2854   -1.7768   -0.8354 H   0  0  0  0  0  0
    5.0385    0.5826   -0.8161 H   0  0  0  0  0  0
    1.1085    1.8340    0.4147 H   0  0  0  0  0  0
    4.3803    2.9887   -0.9105 H   0  0  0  0  0  0
    4.8250    4.5891   -1.4989 H   0  0  0  0  0  0
    5.5626    6.9005   -1.9431 H   0  0  0  0  0  0
    4.8794    8.7470   -0.4247 H   0  0  0  0  0  0
    3.4522    8.2757    1.5444 H   0  0  0  0  0  0
    1.5388    4.4489    3.3194 H   0  0  0  0  0  0
    2.1284    2.5623    1.9451 H   0  0  0  0  0  0
  1  2  1  0  0  0
  1 20  1  0  0  0
  1 21  1  0  0  0
  1 22  1  0  0  0
  2  3  1  0  0  0
  3  8  1  0  0  0
  3  4  2  0  0  0
  4  5  1  0  0  0
  4 23  1  0  0  0
  5  6  2  0  0  0
  5 24  1  0  0  0
  6  7  1  0  0  0
  6 25  1  0  0  0
  7  8  2  0  0  0
  7  9  1  0  0  0
  8 26  1  0  0  0
  9 10  1  0  0  0
  9 27  1  0  0  0
 10 19  1  0  0  0
 10 11  2  0  0  0
 11 16  1  0  0  0
 11 12  1  0  0  0
 12 13  2  0  0  0
 12 28  1  0  0  0
 13 14  1  0  0  0
 13 29  1  0  0  0
 14 15  2  0  0  0
 14 30  1  0  0  0
 15 16  1  0  0  0
 15 31  1  0  0  0
 16 17  2  0  0  0
 17 18  1  0  0  0
 18 19  2  0  0  0
 18 32  1  0  0  0
 19 33  1  0  0  0
M  CHG  1  19   1
M  END
> <s_m_source_file>
SM09.smi

> <i_m_source_file_index>
1

> <i_lp_mmshare_version>
40011

> <i_f3d_flags>
0

> <s_lp_Force_Field>
OPLS_2005

> <r_lp_Energy>
18.1729598606531

> <b_lp_Chiralities_Consistent>
1

> <s_lp_Variant>
SM09-1

> <s_epik_input>
W0NIM11PYzFbY0hdW2NIXVtjSF1jKFtjSF0xKVtOSF1jMm5bY0hdbmMoYzIzKVtjSF1bY0hdW2NIXVtjSF0z

> <s_epik_cmdline>
J2VwaWtfYXBwJywgJy1pbWFlJywgJ1NNMDkuMy40Lm1hZScsICctb21hZScsICdTTTA5LmVwaWsuMy40Lm1hZScsICctcCcsICcwLjAwMDA0NTM5OTkyOTgnLCAnLXBoJywgJzMuNCc=

> <r_lp_tautomer_probability>
0.00649199999999095

> <r_epik_Ionization_Penalty>
  0.3404

> <r_epik_Ionization_Penalty_Charging>
  0.3404

> <r_epik_Ionization_Penalty_Neutral>
  0.0000

> <r_epik_State_Penalty>
  2.4226

> <r_epik_Charging_Adjusted_Penalty>
2.76297891699013

> <i_epik_Tot_Q>
1

> <i_epik_Tot_abs_Q>
1

$$$$
