SM05
                    3D
 Structure written by MMmdl.
 39 41  0  0  1  0            999 V2000
   -2.2662    1.2619   -0.0336 C   0  0  0  0  0  0
   -2.9632    0.0416    0.0022 C   0  0  0  0  0  0
   -2.2521   -1.1717    0.0228 C   0  0  0  0  0  0
   -0.8384   -1.1750    0.0145 C   0  0  0  0  0  0
   -0.1325    0.0554   -0.0029 C   0  0  0  0  0  0
   -0.8589    1.2711   -0.0410 C   0  0  0  0  0  0
    1.2911    0.0054   -0.0263 N   0  0  0  0  0  0
    2.1883    0.9382    0.3413 C   0  0  0  0  0  0
    1.9090    2.0604    0.7611 O   0  0  0  0  0  0
    3.5985    0.5245    0.2123 C   0  0  0  0  0  0
    4.1592   -0.6881   -0.1079 C   0  0  0  0  0  0
    5.5711   -0.5145   -0.0714 C   0  0  0  0  0  0
    5.7510    0.7915    0.2732 C   0  0  0  0  0  0
    4.5773    1.4468    0.4552 O   0  0  0  0  0  0
    7.2772    1.5558    0.4664 Cl  0  0  0  0  0  0
   -0.1322   -2.3897    0.0269 N   0  3  0  0  0  0
   -0.2689   -3.1393    1.2723 C   0  0  0  0  0  0
    0.7312   -4.3078    1.3117 C   0  0  0  0  0  0
    0.5864   -5.1975    0.0659 C   0  0  0  0  0  0
    0.7040   -4.3497   -1.2116 C   0  0  0  0  0  0
   -0.2954   -3.1802   -1.1896 C   0  0  0  0  0  0
   -2.8115    2.1937   -0.0617 H   0  0  0  0  0  0
   -4.0432    0.0355    0.0064 H   0  0  0  0  0  0
   -2.7990   -2.1030    0.0426 H   0  0  0  0  0  0
   -0.3598    2.2259   -0.0915 H   0  0  0  0  0  0
    1.8039   -0.8988   -0.3861 H   0  0  0  0  0  0
    3.6185   -1.5942   -0.3398 H   0  0  0  0  0  0
    6.3435   -1.2433   -0.2678 H   0  0  0  0  0  0
   -0.0725   -2.4726    2.1249 H   0  0  0  0  0  0
   -1.2901   -3.5408    1.3484 H   0  0  0  0  0  0
    1.7568   -3.9116    1.3456 H   0  0  0  0  0  0
    0.5449   -4.9199    2.2065 H   0  0  0  0  0  0
    1.3795   -5.9596    0.0654 H   0  0  0  0  0  0
   -0.3965   -5.6911    0.0801 H   0  0  0  0  0  0
    1.7228   -3.9422   -1.2887 H   0  0  0  0  0  0
    0.4930   -4.9781   -2.0894 H   0  0  0  0  0  0
   -1.3179   -3.5837   -1.2303 H   0  0  0  0  0  0
   -0.1177   -2.5423   -2.0680 H   0  0  0  0  0  0
    0.9143   -2.0512    0.0097 H   0  0  0  0  0  0
  1  6  1  0  0  0
  1  2  2  0  0  0
  1 22  1  0  0  0
  2  3  1  0  0  0
  2 23  1  0  0  0
  3  4  2  0  0  0
  3 24  1  0  0  0
  4  5  1  0  0  0
  4 16  1  0  0  0
  5  6  2  0  0  0
  5  7  1  0  0  0
  6 25  1  0  0  0
  7  8  1  0  0  0
  7 26  1  0  0  0
  8  9  2  0  0  0
  8 10  1  0  0  0
 10 14  1  0  0  0
 10 11  2  0  0  0
 11 12  1  0  0  0
 11 27  1  0  0  0
 12 13  2  0  0  0
 12 28  1  0  0  0
 13 14  1  0  0  0
 13 15  1  0  0  0
 16 21  1  0  0  0
 16 17  1  0  0  0
 16 39  1  0  0  0
 17 18  1  0  0  0
 17 29  1  0  0  0
 17 30  1  0  0  0
 18 19  1  0  0  0
 18 31  1  0  0  0
 18 32  1  0  0  0
 19 20  1  0  0  0
 19 33  1  0  0  0
 19 34  1  0  0  0
 20 21  1  0  0  0
 20 35  1  0  0  0
 20 36  1  0  0  0
 21 37  1  0  0  0
 21 38  1  0  0  0
M  CHG  1  16   1
M  END
> <s_m_source_file>
SM05.smi

> <i_m_source_file_index>
1

> <i_lp_mmshare_version>
40011

> <i_f3d_flags>
0

> <s_lp_Force_Field>
OPLS_2005

> <r_lp_Energy>
28.7423458852986

> <b_lp_Chiralities_Consistent>
1

> <s_lp_Variant>
SM05-1

> <s_epik_input>
W0NIMl0xW0NIMl1bQ0gyXVtDSDJdW0NIMl1OMWMyW2NIXVtjSF1bY0hdW2NIXWMyW05IXUMoPU8pYzNbY0hdW2NIXWMobzMpQ2w=

> <s_epik_cmdline>
J2VwaWtfYXBwJywgJy1pbWFlJywgJ1NNMDUuMy4wLm1hZScsICctb21hZScsICdTTTA1LmVwaWsuMy4wLm1hZScsICctcCcsICcwLjAwMDA0NTM5OTkyOTgnLCAnLXBoJywgJzMuMCc=

> <r_epik_Ionization_Penalty>
  0.0591

> <r_epik_Ionization_Penalty_Charging>
  0.0027

> <r_epik_Ionization_Penalty_Neutral>
  0.0565

> <r_epik_State_Penalty>
  0.0023

> <r_epik_Charging_Adjusted_Penalty>
0.00496752515817669

> <i_epik_Tot_Q>
1

> <i_epik_Tot_abs_Q>
1

$$$$
SM05
                    3D
 Structure written by MMmdl.
 38 40  0  0  1  0            999 V2000
   -2.2662    1.2619   -0.0336 C   0  0  0  0  0  0
   -2.9632    0.0416    0.0022 C   0  0  0  0  0  0
   -2.2521   -1.1717    0.0228 C   0  0  0  0  0  0
   -0.8384   -1.1750    0.0145 C   0  0  0  0  0  0
   -0.1325    0.0554   -0.0029 C   0  0  0  0  0  0
   -0.8589    1.2711   -0.0410 C   0  0  0  0  0  0
    1.2911    0.0054   -0.0263 N   0  0  0  0  0  0
    2.1883    0.9382    0.3413 C   0  0  0  0  0  0
    1.9090    2.0604    0.7611 O   0  0  0  0  0  0
    3.5985    0.5245    0.2123 C   0  0  0  0  0  0
    4.1592   -0.6881   -0.1079 C   0  0  0  0  0  0
    5.5711   -0.5145   -0.0714 C   0  0  0  0  0  0
    5.7510    0.7915    0.2732 C   0  0  0  0  0  0
    4.5773    1.4468    0.4552 O   0  0  0  0  0  0
    7.2772    1.5558    0.4664 Cl  0  0  0  0  0  0
   -0.1322   -2.3897    0.0269 N   0  0  0  0  0  0
   -0.2689   -3.1393    1.2723 C   0  0  0  0  0  0
    0.7312   -4.3078    1.3117 C   0  0  0  0  0  0
    0.5864   -5.1975    0.0659 C   0  0  0  0  0  0
    0.7040   -4.3497   -1.2116 C   0  0  0  0  0  0
   -0.2954   -3.1802   -1.1896 C   0  0  0  0  0  0
   -2.8115    2.1937   -0.0617 H   0  0  0  0  0  0
   -4.0432    0.0355    0.0064 H   0  0  0  0  0  0
   -2.7990   -2.1030    0.0426 H   0  0  0  0  0  0
   -0.3598    2.2259   -0.0915 H   0  0  0  0  0  0
    1.8039   -0.8988   -0.3861 H   0  0  0  0  0  0
    3.6185   -1.5942   -0.3398 H   0  0  0  0  0  0
    6.3435   -1.2433   -0.2678 H   0  0  0  0  0  0
   -0.0725   -2.4726    2.1249 H   0  0  0  0  0  0
   -1.2901   -3.5408    1.3484 H   0  0  0  0  0  0
    1.7568   -3.9116    1.3456 H   0  0  0  0  0  0
    0.5449   -4.9199    2.2065 H   0  0  0  0  0  0
    1.3795   -5.9596    0.0654 H   0  0  0  0  0  0
   -0.3965   -5.6911    0.0801 H   0  0  0  0  0  0
    1.7228   -3.9422   -1.2887 H   0  0  0  0  0  0
    0.4930   -4.9781   -2.0894 H   0  0  0  0  0  0
   -1.3179   -3.5837   -1.2303 H   0  0  0  0  0  0
   -0.1177   -2.5423   -2.0680 H   0  0  0  0  0  0
  1  6  1  0  0  0
  1  2  2  0  0  0
  1 22  1  0  0  0
  2  3  1  0  0  0
  2 23  1  0  0  0
  3  4  2  0  0  0
  3 24  1  0  0  0
  4  5  1  0  0  0
  4 16  1  0  0  0
  5  6  2  0  0  0
  5  7  1  0  0  0
  6 25  1  0  0  0
  7  8  1  0  0  0
  7 26  1  0  0  0
  8  9  2  0  0  0
  8 10  1  0  0  0
 10 14  1  0  0  0
 10 11  2  0  0  0
 11 12  1  0  0  0
 11 27  1  0  0  0
 12 13  2  0  0  0
 12 28  1  0  0  0
 13 14  1  0  0  0
 13 15  1  0  0  0
 16 21  1  0  0  0
 16 17  1  0  0  0
 17 18  1  0  0  0
 17 29  1  0  0  0
 17 30  1  0  0  0
 18 19  1  0  0  0
 18 31  1  0  0  0
 18 32  1  0  0  0
 19 20  1  0  0  0
 19 33  1  0  0  0
 19 34  1  0  0  0
 20 21  1  0  0  0
 20 35  1  0  0  0
 20 36  1  0  0  0
 21 37  1  0  0  0
 21 38  1  0  0  0
M  END
> <s_m_source_file>
SM05.smi

> <i_m_source_file_index>
1

> <i_lp_mmshare_version>
40011

> <i_f3d_flags>
0

> <s_lp_Force_Field>
OPLS_2005

> <r_lp_Energy>
28.7423458852986

> <b_lp_Chiralities_Consistent>
1

> <s_lp_Variant>
SM05-1

> <s_epik_input>
W0NIMl0xW0NIMl1bQ0gyXVtDSDJdW0NIMl1OMWMyW2NIXVtjSF1bY0hdW2NIXWMyW05IXUMoPU8pYzNbY0hdW2NIXWMobzMpQ2w=

> <s_epik_cmdline>
J2VwaWtfYXBwJywgJy1pbWFlJywgJ1NNMDUuMy4wLm1hZScsICctb21hZScsICdTTTA1LmVwaWsuMy4wLm1hZScsICctcCcsICcwLjAwMDA0NTM5OTkyOTgnLCAnLXBoJywgJzMuMCc=

> <r_epik_Ionization_Penalty>
  3.2598

> <r_epik_Ionization_Penalty_Charging>
  0.0000

> <r_epik_Ionization_Penalty_Neutral>
  3.2598

> <r_epik_State_Penalty>
  3.3438

> <r_epik_Charging_Adjusted_Penalty>
3.34382965103741

> <i_epik_Tot_Q>
0

> <i_epik_Tot_abs_Q>
0

$$$$
SM05
                    3D
 Structure written by MMmdl.
 40 42  0  0  1  0            999 V2000
   -2.2662    1.2619   -0.0336 C   0  0  0  0  0  0
   -2.9632    0.0416    0.0022 C   0  0  0  0  0  0
   -2.2521   -1.1717    0.0228 C   0  0  0  0  0  0
   -0.8384   -1.1750    0.0145 C   0  0  0  0  0  0
   -0.1325    0.0554   -0.0029 C   0  0  0  0  0  0
   -0.8589    1.2711   -0.0410 C   0  0  0  0  0  0
    1.2911    0.0054   -0.0263 N   0  0  0  0  0  0
    2.1883    0.9382    0.3413 C   0  0  0  0  0  0
    1.9090    2.0604    0.7611 O   0  3  0  0  0  0
    3.5985    0.5245    0.2123 C   0  0  0  0  0  0
    4.1592   -0.6881   -0.1079 C   0  0  0  0  0  0
    5.5711   -0.5145   -0.0714 C   0  0  0  0  0  0
    5.7510    0.7915    0.2732 C   0  0  0  0  0  0
    4.5773    1.4468    0.4552 O   0  0  0  0  0  0
    7.2772    1.5558    0.4664 Cl  0  0  0  0  0  0
   -0.1322   -2.3897    0.0269 N   0  3  0  0  0  0
   -0.2689   -3.1393    1.2723 C   0  0  0  0  0  0
    0.7312   -4.3078    1.3117 C   0  0  0  0  0  0
    0.5864   -5.1975    0.0659 C   0  0  0  0  0  0
    0.7040   -4.3497   -1.2116 C   0  0  0  0  0  0
   -0.2954   -3.1802   -1.1896 C   0  0  0  0  0  0
   -2.8115    2.1937   -0.0617 H   0  0  0  0  0  0
   -4.0432    0.0355    0.0064 H   0  0  0  0  0  0
   -2.7990   -2.1030    0.0426 H   0  0  0  0  0  0
   -0.3598    2.2259   -0.0915 H   0  0  0  0  0  0
    1.8039   -0.8988   -0.3861 H   0  0  0  0  0  0
    3.6185   -1.5942   -0.3398 H   0  0  0  0  0  0
    6.3435   -1.2433   -0.2678 H   0  0  0  0  0  0
   -0.0725   -2.4726    2.1249 H   0  0  0  0  0  0
   -1.2901   -3.5408    1.3484 H   0  0  0  0  0  0
    1.7568   -3.9116    1.3456 H   0  0  0  0  0  0
    0.5449   -4.9199    2.2065 H   0  0  0  0  0  0
    1.3795   -5.9596    0.0654 H   0  0  0  0  0  0
   -0.3965   -5.6911    0.0801 H   0  0  0  0  0  0
    1.7228   -3.9422   -1.2887 H   0  0  0  0  0  0
    0.4930   -4.9781   -2.0894 H   0  0  0  0  0  0
   -1.3179   -3.5837   -1.2303 H   0  0  0  0  0  0
   -0.1177   -2.5423   -2.0680 H   0  0  0  0  0  0
    0.9143   -2.0512    0.0097 H   0  0  0  0  0  0
    2.7117    2.7583    1.0413 H   0  0  0  0  0  0
  1  6  1  0  0  0
  1  2  2  0  0  0
  1 22  1  0  0  0
  2  3  1  0  0  0
  2 23  1  0  0  0
  3  4  2  0  0  0
  3 24  1  0  0  0
  4  5  1  0  0  0
  4 16  1  0  0  0
  5  6  2  0  0  0
  5  7  1  0  0  0
  6 25  1  0  0  0
  7  8  1  0  0  0
  7 26  1  0  0  0
  8  9  2  0  0  0
  8 10  1  0  0  0
  9 40  1  0  0  0
 10 14  1  0  0  0
 10 11  2  0  0  0
 11 12  1  0  0  0
 11 27  1  0  0  0
 12 13  2  0  0  0
 12 28  1  0  0  0
 13 14  1  0  0  0
 13 15  1  0  0  0
 16 21  1  0  0  0
 16 17  1  0  0  0
 16 39  1  0  0  0
 17 18  1  0  0  0
 17 29  1  0  0  0
 17 30  1  0  0  0
 18 19  1  0  0  0
 18 31  1  0  0  0
 18 32  1  0  0  0
 19 20  1  0  0  0
 19 33  1  0  0  0
 19 34  1  0  0  0
 20 21  1  0  0  0
 20 35  1  0  0  0
 20 36  1  0  0  0
 21 37  1  0  0  0
 21 38  1  0  0  0
M  CHG  2   9   1  16   1
M  END
> <s_m_source_file>
SM05.smi

> <i_m_source_file_index>
1

> <i_lp_mmshare_version>
40011

> <i_f3d_flags>
0

> <s_lp_Force_Field>
OPLS_2005

> <r_lp_Energy>
28.7423458852986

> <b_lp_Chiralities_Consistent>
1

> <s_lp_Variant>
SM05-1

> <s_epik_input>
W0NIMl0xW0NIMl1bQ0gyXVtDSDJdW0NIMl1OMWMyW2NIXVtjSF1bY0hdW2NIXWMyW05IXUMoPU8pYzNbY0hdW2NIXWMobzMpQ2w=

> <s_epik_cmdline>
J2VwaWtfYXBwJywgJy1pbWFlJywgJ1NNMDUuMy4wLm1hZScsICctb21hZScsICdTTTA1LmVwaWsuMy4wLm1hZScsICctcCcsICcwLjAwMDA0NTM5OTkyOTgnLCAnLXBoJywgJzMuMCc=

> <r_epik_Ionization_Penalty>
  7.2359

> <r_epik_Ionization_Penalty_Charging>
  7.2359

> <r_epik_Ionization_Penalty_Neutral>
  0.0000

> <r_epik_State_Penalty>
  4.7356

> <r_epik_Charging_Adjusted_Penalty>
11.9714735529436

> <i_epik_Tot_Q>
2

> <i_epik_Tot_abs_Q>
2

$$$$
