SM06
                    3D
 Structure written by MMmdl.
 31 33  0  0  1  0            999 V2000
   -2.1895    1.2042   -0.0222 C   0  0  0  0  0  0
   -2.8532   -0.0332    0.0039 C   0  0  0  0  0  0
   -2.1101   -1.2296    0.0005 C   0  0  0  0  0  0
   -2.7838   -2.4686    0.0157 C   0  0  0  0  0  0
   -2.0281   -3.6540    0.0087 C   0  0  0  0  0  0
   -0.6263   -3.5478   -0.0130 C   0  0  0  0  0  0
    0.0255   -2.3665   -0.0272 N   0  3  0  0  0  0
   -0.6860   -1.2102   -0.0201 C   0  0  0  0  0  0
   -0.0288    0.0486   -0.0274 C   0  0  0  0  0  0
   -0.7848    1.2461   -0.0435 C   0  0  0  0  0  0
    1.3948    0.0587   -0.0700 N   0  0  0  0  0  0
    2.2451    0.9646    0.4487 C   0  0  0  0  0  0
    1.9073    2.0167    0.9909 O   0  0  0  0  0  0
    3.6998    0.6345    0.2753 C   0  0  0  0  0  0
    4.1596   -0.7029    0.2569 C   0  0  0  0  0  0
    5.5379   -0.9484    0.1092 C   0  0  0  0  0  0
    6.4097    0.1520   -0.0046 C   0  0  0  0  0  0
    5.9881    1.4341    0.0255 N   0  0  0  0  0  0
    4.6640    1.6626    0.1668 C   0  0  0  0  0  0
    6.2068   -2.7293    0.0657 Br  0  0  0  0  0  0
   -2.7577    2.1227   -0.0320 H   0  0  0  0  0  0
   -3.9332   -0.0599    0.0186 H   0  0  0  0  0  0
   -3.8633   -2.5138    0.0311 H   0  0  0  0  0  0
   -2.5104   -4.6203    0.0191 H   0  0  0  0  0  0
   -0.0104   -4.4351   -0.0190 H   0  0  0  0  0  0
   -0.3041    2.2115   -0.0870 H   0  0  0  0  0  0
    1.9355   -0.7527   -0.5791 H   0  0  0  0  0  0
    3.4759   -1.5339    0.3547 H   0  0  0  0  0  0
    7.4726   -0.0001   -0.1197 H   0  0  0  0  0  0
    4.3708    2.7024    0.1877 H   0  0  0  0  0  0
    1.1251   -2.3452   -0.0443 H   0  0  0  0  0  0
  1 10  1  0  0  0
  1  2  2  0  0  0
  1 21  1  0  0  0
  2  3  1  0  0  0
  2 22  1  0  0  0
  3  8  2  0  0  0
  3  4  1  0  0  0
  4  5  2  0  0  0
  4 23  1  0  0  0
  5  6  1  0  0  0
  5 24  1  0  0  0
  6  7  2  0  0  0
  6 25  1  0  0  0
  7  8  1  0  0  0
  7 31  1  0  0  0
  8  9  1  0  0  0
  9 10  2  0  0  0
  9 11  1  0  0  0
 10 26  1  0  0  0
 11 12  1  0  0  0
 11 27  1  0  0  0
 12 13  2  0  0  0
 12 14  1  0  0  0
 14 19  1  0  0  0
 14 15  2  0  0  0
 15 16  1  0  0  0
 15 28  1  0  0  0
 16 17  2  0  0  0
 16 20  1  0  0  0
 17 18  1  0  0  0
 17 29  1  0  0  0
 18 19  2  0  0  0
 19 30  1  0  0  0
M  CHG  1   7   1
M  END
> <s_m_source_file>
SM06.smi

> <i_m_source_file_index>
1

> <i_lp_mmshare_version>
40011

> <i_f3d_flags>
0

> <s_lp_Force_Field>
OPLS_2005

> <r_lp_Energy>
20.2682722505079

> <b_lp_Chiralities_Consistent>
1

> <s_lp_Variant>
SM06-1

> <s_epik_input>
W2NIXTFbY0hdW2NIXW5jKGMxMiljKFtjSF1bY0hdW2NIXTIpW05IXUMoPU8pYzNbY0hdYyhCcilbY0hdbltjSF0z

> <s_epik_cmdline>
J2VwaWtfYXBwJywgJy1pbWFlJywgJ1NNMDYuMi4yLm1hZScsICctb21hZScsICdTTTA2LmVwaWsuMi4yLm1hZScsICctcCcsICcwLjAwMDA0NTM5OTkyOTgnLCAnLXBoJywgJzIuMic=

> <r_epik_Ionization_Penalty>
  0.4209

> <r_epik_Ionization_Penalty_Charging>
  0.0093

> <r_epik_Ionization_Penalty_Neutral>
  0.4116

> <r_epik_State_Penalty>
  0.3508

> <r_epik_Charging_Adjusted_Penalty>
0.360087776393642

> <i_epik_Tot_Q>
1

> <i_epik_Tot_abs_Q>
1

$$$$
SM06
                    3D
 Structure written by MMmdl.
 32 34  0  0  1  0            999 V2000
   -2.1895    1.2042   -0.0222 C   0  0  0  0  0  0
   -2.8532   -0.0332    0.0039 C   0  0  0  0  0  0
   -2.1101   -1.2296    0.0005 C   0  0  0  0  0  0
   -2.7838   -2.4686    0.0157 C   0  0  0  0  0  0
   -2.0281   -3.6540    0.0087 C   0  0  0  0  0  0
   -0.6263   -3.5478   -0.0130 C   0  0  0  0  0  0
    0.0255   -2.3665   -0.0272 N   0  3  0  0  0  0
   -0.6860   -1.2102   -0.0201 C   0  0  0  0  0  0
   -0.0288    0.0486   -0.0274 C   0  0  0  0  0  0
   -0.7848    1.2461   -0.0435 C   0  0  0  0  0  0
    1.3948    0.0587   -0.0700 N   0  0  0  0  0  0
    2.2451    0.9646    0.4487 C   0  0  0  0  0  0
    1.9073    2.0167    0.9909 O   0  0  0  0  0  0
    3.6998    0.6345    0.2753 C   0  0  0  0  0  0
    4.1596   -0.7029    0.2569 C   0  0  0  0  0  0
    5.5379   -0.9484    0.1092 C   0  0  0  0  0  0
    6.4097    0.1520   -0.0046 C   0  0  0  0  0  0
    5.9881    1.4341    0.0255 N   0  3  0  0  0  0
    4.6640    1.6626    0.1668 C   0  0  0  0  0  0
    6.2068   -2.7293    0.0657 Br  0  0  0  0  0  0
   -2.7577    2.1227   -0.0320 H   0  0  0  0  0  0
   -3.9332   -0.0599    0.0186 H   0  0  0  0  0  0
   -3.8633   -2.5138    0.0311 H   0  0  0  0  0  0
   -2.5104   -4.6203    0.0191 H   0  0  0  0  0  0
   -0.0104   -4.4351   -0.0190 H   0  0  0  0  0  0
   -0.3041    2.2115   -0.0870 H   0  0  0  0  0  0
    1.9355   -0.7527   -0.5791 H   0  0  0  0  0  0
    3.4759   -1.5339    0.3547 H   0  0  0  0  0  0
    7.4726   -0.0001   -0.1197 H   0  0  0  0  0  0
    4.3708    2.7024    0.1877 H   0  0  0  0  0  0
    1.1251   -2.3452   -0.0443 H   0  0  0  0  0  0
    6.7155    2.2545   -0.0638 H   0  0  0  0  0  0
  1 10  1  0  0  0
  1  2  2  0  0  0
  1 21  1  0  0  0
  2  3  1  0  0  0
  2 22  1  0  0  0
  3  8  2  0  0  0
  3  4  1  0  0  0
  4  5  2  0  0  0
  4 23  1  0  0  0
  5  6  1  0  0  0
  5 24  1  0  0  0
  6  7  2  0  0  0
  6 25  1  0  0  0
  7  8  1  0  0  0
  7 31  1  0  0  0
  8  9  1  0  0  0
  9 10  2  0  0  0
  9 11  1  0  0  0
 10 26  1  0  0  0
 11 12  1  0  0  0
 11 27  1  0  0  0
 12 13  2  0  0  0
 12 14  1  0  0  0
 14 19  1  0  0  0
 14 15  2  0  0  0
 15 16  1  0  0  0
 15 28  1  0  0  0
 16 17  2  0  0  0
 16 20  1  0  0  0
 17 18  1  0  0  0
 17 29  1  0  0  0
 18 19  2  0  0  0
 18 32  1  0  0  0
 19 30  1  0  0  0
M  CHG  2   7   1  18   1
M  END
> <s_m_source_file>
SM06.smi

> <i_m_source_file_index>
1

> <i_lp_mmshare_version>
40011

> <i_f3d_flags>
0

> <s_lp_Force_Field>
OPLS_2005

> <r_lp_Energy>
20.2682722505079

> <b_lp_Chiralities_Consistent>
1

> <s_lp_Variant>
SM06-1

> <s_epik_input>
W2NIXTFbY0hdW2NIXW5jKGMxMiljKFtjSF1bY0hdW2NIXTIpW05IXUMoPU8pYzNbY0hdYyhCcilbY0hdbltjSF0z

> <s_epik_cmdline>
J2VwaWtfYXBwJywgJy1pbWFlJywgJ1NNMDYuMi4yLm1hZScsICctb21hZScsICdTTTA2LmVwaWsuMi4yLm1hZScsICctcCcsICcwLjAwMDA0NTM5OTkyOTgnLCAnLXBoJywgJzIuMic=

> <r_epik_Ionization_Penalty>
  0.4463

> <r_epik_Ionization_Penalty_Charging>
  0.4461

> <r_epik_Ionization_Penalty_Neutral>
  0.0001

> <r_epik_State_Penalty>
  0.5005

> <r_epik_Charging_Adjusted_Penalty>
0.946668639903003

> <i_epik_Tot_Q>
2

> <i_epik_Tot_abs_Q>
2

$$$$
SM06
                    3D
 Structure written by MMmdl.
 31 33  0  0  1  0            999 V2000
   -2.1895    1.2042   -0.0222 C   0  0  0  0  0  0
   -2.8532   -0.0332    0.0039 C   0  0  0  0  0  0
   -2.1101   -1.2296    0.0005 C   0  0  0  0  0  0
   -2.7838   -2.4686    0.0157 C   0  0  0  0  0  0
   -2.0281   -3.6540    0.0087 C   0  0  0  0  0  0
   -0.6263   -3.5478   -0.0130 C   0  0  0  0  0  0
    0.0255   -2.3665   -0.0272 N   0  0  0  0  0  0
   -0.6860   -1.2102   -0.0201 C   0  0  0  0  0  0
   -0.0288    0.0486   -0.0274 C   0  0  0  0  0  0
   -0.7848    1.2461   -0.0435 C   0  0  0  0  0  0
    1.3948    0.0587   -0.0700 N   0  0  0  0  0  0
    2.2451    0.9646    0.4487 C   0  0  0  0  0  0
    1.9073    2.0167    0.9909 O   0  0  0  0  0  0
    3.6998    0.6345    0.2753 C   0  0  0  0  0  0
    4.1596   -0.7029    0.2569 C   0  0  0  0  0  0
    5.5379   -0.9484    0.1092 C   0  0  0  0  0  0
    6.4097    0.1520   -0.0046 C   0  0  0  0  0  0
    5.9881    1.4341    0.0255 N   0  3  0  0  0  0
    4.6640    1.6626    0.1668 C   0  0  0  0  0  0
    6.2068   -2.7293    0.0657 Br  0  0  0  0  0  0
   -2.7577    2.1227   -0.0320 H   0  0  0  0  0  0
   -3.9332   -0.0599    0.0186 H   0  0  0  0  0  0
   -3.8633   -2.5138    0.0311 H   0  0  0  0  0  0
   -2.5104   -4.6203    0.0191 H   0  0  0  0  0  0
   -0.0104   -4.4351   -0.0190 H   0  0  0  0  0  0
   -0.3041    2.2115   -0.0870 H   0  0  0  0  0  0
    1.9355   -0.7527   -0.5791 H   0  0  0  0  0  0
    3.4759   -1.5339    0.3547 H   0  0  0  0  0  0
    7.4726   -0.0001   -0.1197 H   0  0  0  0  0  0
    4.3708    2.7024    0.1877 H   0  0  0  0  0  0
    6.7155    2.2545   -0.0638 H   0  0  0  0  0  0
  1 10  1  0  0  0
  1  2  2  0  0  0
  1 21  1  0  0  0
  2  3  1  0  0  0
  2 22  1  0  0  0
  3  8  2  0  0  0
  3  4  1  0  0  0
  4  5  2  0  0  0
  4 23  1  0  0  0
  5  6  1  0  0  0
  5 24  1  0  0  0
  6  7  2  0  0  0
  6 25  1  0  0  0
  7  8  1  0  0  0
  8  9  1  0  0  0
  9 10  2  0  0  0
  9 11  1  0  0  0
 10 26  1  0  0  0
 11 12  1  0  0  0
 11 27  1  0  0  0
 12 13  2  0  0  0
 12 14  1  0  0  0
 14 19  1  0  0  0
 14 15  2  0  0  0
 15 16  1  0  0  0
 15 28  1  0  0  0
 16 17  2  0  0  0
 16 20  1  0  0  0
 17 18  1  0  0  0
 17 29  1  0  0  0
 18 19  2  0  0  0
 18 31  1  0  0  0
 19 30  1  0  0  0
M  CHG  1  18   1
M  END
> <s_m_source_file>
SM06.smi

> <i_m_source_file_index>
1

> <i_lp_mmshare_version>
40011

> <i_f3d_flags>
0

> <s_lp_Force_Field>
OPLS_2005

> <r_lp_Energy>
20.2682722505079

> <b_lp_Chiralities_Consistent>
1

> <s_lp_Variant>
SM06-1

> <s_epik_input>
W2NIXTFbY0hdW2NIXW5jKGMxMiljKFtjSF1bY0hdW2NIXTIpW05IXUMoPU8pYzNbY0hdYyhCcilbY0hdbltjSF0z

> <s_epik_cmdline>
J2VwaWtfYXBwJywgJy1pbWFlJywgJ1NNMDYuMi4yLm1hZScsICctb21hZScsICdTTTA2LmVwaWsuMi4yLm1hZScsICctcCcsICcwLjAwMDA0NTM5OTkyOTgnLCAnLXBoJywgJzIuMic=

> <r_epik_Ionization_Penalty>
  2.4789

> <r_epik_Ionization_Penalty_Charging>
  0.4273

> <r_epik_Ionization_Penalty_Neutral>
  2.0516

> <r_epik_State_Penalty>
  2.7844

> <r_epik_Charging_Adjusted_Penalty>
3.21164907512244

> <i_epik_Tot_Q>
1

> <i_epik_Tot_abs_Q>
1

$$$$
SM06
                    3D
 Structure written by MMmdl.
 30 32  0  0  1  0            999 V2000
   -2.1895    1.2042   -0.0222 C   0  0  0  0  0  0
   -2.8532   -0.0332    0.0039 C   0  0  0  0  0  0
   -2.1101   -1.2296    0.0005 C   0  0  0  0  0  0
   -2.7838   -2.4686    0.0157 C   0  0  0  0  0  0
   -2.0281   -3.6540    0.0087 C   0  0  0  0  0  0
   -0.6263   -3.5478   -0.0130 C   0  0  0  0  0  0
    0.0255   -2.3665   -0.0272 N   0  0  0  0  0  0
   -0.6860   -1.2102   -0.0201 C   0  0  0  0  0  0
   -0.0288    0.0486   -0.0274 C   0  0  0  0  0  0
   -0.7848    1.2461   -0.0435 C   0  0  0  0  0  0
    1.3948    0.0587   -0.0700 N   0  0  0  0  0  0
    2.2451    0.9646    0.4487 C   0  0  0  0  0  0
    1.9073    2.0167    0.9909 O   0  0  0  0  0  0
    3.6998    0.6345    0.2753 C   0  0  0  0  0  0
    4.1596   -0.7029    0.2569 C   0  0  0  0  0  0
    5.5379   -0.9484    0.1092 C   0  0  0  0  0  0
    6.4097    0.1520   -0.0046 C   0  0  0  0  0  0
    5.9881    1.4341    0.0255 N   0  0  0  0  0  0
    4.6640    1.6626    0.1668 C   0  0  0  0  0  0
    6.2068   -2.7293    0.0657 Br  0  0  0  0  0  0
   -2.7577    2.1227   -0.0320 H   0  0  0  0  0  0
   -3.9332   -0.0599    0.0186 H   0  0  0  0  0  0
   -3.8633   -2.5138    0.0311 H   0  0  0  0  0  0
   -2.5104   -4.6203    0.0191 H   0  0  0  0  0  0
   -0.0104   -4.4351   -0.0190 H   0  0  0  0  0  0
   -0.3041    2.2115   -0.0870 H   0  0  0  0  0  0
    1.9355   -0.7527   -0.5791 H   0  0  0  0  0  0
    3.4759   -1.5339    0.3547 H   0  0  0  0  0  0
    7.4726   -0.0001   -0.1197 H   0  0  0  0  0  0
    4.3708    2.7024    0.1877 H   0  0  0  0  0  0
  1 10  1  0  0  0
  1  2  2  0  0  0
  1 21  1  0  0  0
  2  3  1  0  0  0
  2 22  1  0  0  0
  3  8  2  0  0  0
  3  4  1  0  0  0
  4  5  2  0  0  0
  4 23  1  0  0  0
  5  6  1  0  0  0
  5 24  1  0  0  0
  6  7  2  0  0  0
  6 25  1  0  0  0
  7  8  1  0  0  0
  8  9  1  0  0  0
  9 10  2  0  0  0
  9 11  1  0  0  0
 10 26  1  0  0  0
 11 12  1  0  0  0
 11 27  1  0  0  0
 12 13  2  0  0  0
 12 14  1  0  0  0
 14 19  1  0  0  0
 14 15  2  0  0  0
 15 16  1  0  0  0
 15 28  1  0  0  0
 16 17  2  0  0  0
 16 20  1  0  0  0
 17 18  1  0  0  0
 17 29  1  0  0  0
 18 19  2  0  0  0
 19 30  1  0  0  0
M  END
> <s_m_source_file>
SM06.smi

> <i_m_source_file_index>
1

> <i_lp_mmshare_version>
40011

> <i_f3d_flags>
0

> <s_lp_Force_Field>
OPLS_2005

> <r_lp_Energy>
20.2682722505079

> <b_lp_Chiralities_Consistent>
1

> <s_lp_Variant>
SM06-1

> <s_epik_input>
W2NIXTFbY0hdW2NIXW5jKGMxMiljKFtjSF1bY0hdW2NIXTIpW05IXUMoPU8pYzNbY0hdYyhCcilbY0hdbltjSF0z

> <s_epik_cmdline>
J2VwaWtfYXBwJywgJy1pbWFlJywgJ1NNMDYuMi4yLm1hZScsICctb21hZScsICdTTTA2LmVwaWsuMi4yLm1hZScsICctcCcsICcwLjAwMDA0NTM5OTkyOTgnLCAnLXBoJywgJzIuMic=

> <r_epik_Ionization_Penalty>
  2.8773

> <r_epik_Ionization_Penalty_Charging>
  0.0000

> <r_epik_Ionization_Penalty_Neutral>
  2.8773

> <r_epik_State_Penalty>
  2.8642

> <r_epik_Charging_Adjusted_Penalty>
2.86423337276185

> <i_epik_Tot_Q>
0

> <i_epik_Tot_abs_Q>
0

$$$$
SM06
                    3D
 Structure written by MMmdl.
 32 34  0  0  1  0            999 V2000
   -2.1895    1.2042   -0.0222 C   0  0  0  0  0  0
   -2.8532   -0.0332    0.0039 C   0  0  0  0  0  0
   -2.1101   -1.2296    0.0005 C   0  0  0  0  0  0
   -2.7838   -2.4686    0.0157 C   0  0  0  0  0  0
   -2.0281   -3.6540    0.0087 C   0  0  0  0  0  0
   -0.6263   -3.5478   -0.0130 C   0  0  0  0  0  0
    0.0255   -2.3665   -0.0272 N   0  3  0  0  0  0
   -0.6860   -1.2102   -0.0201 C   0  0  0  0  0  0
   -0.0288    0.0486   -0.0274 C   0  0  0  0  0  0
   -0.7848    1.2461   -0.0435 C   0  0  0  0  0  0
    1.3948    0.0587   -0.0700 N   0  0  0  0  0  0
    2.2451    0.9646    0.4487 C   0  0  0  0  0  0
    1.9073    2.0167    0.9909 O   0  3  0  0  0  0
    3.6998    0.6345    0.2753 C   0  0  0  0  0  0
    4.1596   -0.7029    0.2569 C   0  0  0  0  0  0
    5.5379   -0.9484    0.1092 C   0  0  0  0  0  0
    6.4097    0.1520   -0.0046 C   0  0  0  0  0  0
    5.9881    1.4341    0.0255 N   0  0  0  0  0  0
    4.6640    1.6626    0.1668 C   0  0  0  0  0  0
    6.2068   -2.7293    0.0657 Br  0  0  0  0  0  0
   -2.7577    2.1227   -0.0320 H   0  0  0  0  0  0
   -3.9332   -0.0599    0.0186 H   0  0  0  0  0  0
   -3.8633   -2.5138    0.0311 H   0  0  0  0  0  0
   -2.5104   -4.6203    0.0191 H   0  0  0  0  0  0
   -0.0104   -4.4351   -0.0190 H   0  0  0  0  0  0
   -0.3041    2.2115   -0.0870 H   0  0  0  0  0  0
    1.9355   -0.7527   -0.5791 H   0  0  0  0  0  0
    3.4759   -1.5339    0.3547 H   0  0  0  0  0  0
    7.4726   -0.0001   -0.1197 H   0  0  0  0  0  0
    4.3708    2.7024    0.1877 H   0  0  0  0  0  0
    1.1251   -2.3452   -0.0443 H   0  0  0  0  0  0
    2.6724    2.7202    1.3510 H   0  0  0  0  0  0
  1 10  1  0  0  0
  1  2  2  0  0  0
  1 21  1  0  0  0
  2  3  1  0  0  0
  2 22  1  0  0  0
  3  8  2  0  0  0
  3  4  1  0  0  0
  4  5  2  0  0  0
  4 23  1  0  0  0
  5  6  1  0  0  0
  5 24  1  0  0  0
  6  7  2  0  0  0
  6 25  1  0  0  0
  7  8  1  0  0  0
  7 31  1  0  0  0
  8  9  1  0  0  0
  9 10  2  0  0  0
  9 11  1  0  0  0
 10 26  1  0  0  0
 11 12  1  0  0  0
 11 27  1  0  0  0
 12 13  2  0  0  0
 12 14  1  0  0  0
 13 32  1  0  0  0
 14 19  1  0  0  0
 14 15  2  0  0  0
 15 16  1  0  0  0
 15 28  1  0  0  0
 16 17  2  0  0  0
 16 20  1  0  0  0
 17 18  1  0  0  0
 17 29  1  0  0  0
 18 19  2  0  0  0
 19 30  1  0  0  0
M  CHG  2   7   1  13   1
M  END
> <s_m_source_file>
SM06.smi

> <i_m_source_file_index>
1

> <i_lp_mmshare_version>
40011

> <i_f3d_flags>
0

> <s_lp_Force_Field>
OPLS_2005

> <r_lp_Energy>
20.2682722505079

> <b_lp_Chiralities_Consistent>
1

> <s_lp_Variant>
SM06-1

> <s_epik_input>
W2NIXTFbY0hdW2NIXW5jKGMxMiljKFtjSF1bY0hdW2NIXTIpW05IXUMoPU8pYzNbY0hdYyhCcilbY0hdbltjSF0z

> <s_epik_cmdline>
J2VwaWtfYXBwJywgJy1pbWFlJywgJ1NNMDYuMi4yLm1hZScsICctb21hZScsICdTTTA2LmVwaWsuMi4yLm1hZScsICctcCcsICcwLjAwMDA0NTM5OTkyOTgnLCAnLXBoJywgJzIuMic=

> <r_epik_Ionization_Penalty>
 10.0439

> <r_epik_Ionization_Penalty_Charging>
  7.9714

> <r_epik_Ionization_Penalty_Neutral>
  2.0726

> <r_epik_State_Penalty>
  5.7018

> <r_epik_Charging_Adjusted_Penalty>
13.6732176900167

> <i_epik_Tot_Q>
2

> <i_epik_Tot_abs_Q>
2

$$$$
