SM08
                    3D
 Structure written by MMmdl.
 36 38  0  0  1  0            999 V2000
   -5.1407    3.5709    0.0517 C   0  0  0  0  0  0
   -4.3267    2.2933    0.0367 C   0  0  0  0  0  0
   -4.9694    1.0381    0.0476 C   0  0  0  0  0  0
   -4.2058   -0.1442    0.0322 C   0  0  0  0  0  0
   -2.7999   -0.0672    0.0063 C   0  0  0  0  0  0
   -2.1435    1.1778   -0.0029 C   0  0  0  0  0  0
   -2.9179    2.3611    0.0123 C   0  0  0  0  0  0
   -0.6651    1.1768   -0.0254 C   0  0  0  0  0  0
    0.0225   -0.0014   -0.0363 C   0  0  0  0  0  0
   -0.6826   -1.2982   -0.0414 C   0  0  0  0  0  0
   -0.1185   -2.3906   -0.0784 O   0  0  0  0  0  0
   -2.0288   -1.2473   -0.0126 N   0  0  0  0  0  0
    1.5545   -0.0580   -0.0518 C   0  0  0  0  0  0
    2.2218    0.0510   -1.4250 C   0  0  0  0  0  0
    1.5996    0.1190   -2.4836 O   0  0  0  0  0  0
    3.5811    0.0609   -1.3135 O   0  5  0  0  0  0
    0.0531    2.4631   -0.0325 C   0  0  0  0  0  0
    0.4121    3.0756    1.1861 C   0  0  0  0  0  0
    1.0798    4.3158    1.1770 C   0  0  0  0  0  0
    1.3785    4.9470   -0.0467 C   0  0  0  0  0  0
    1.0047    4.3420   -1.2629 C   0  0  0  0  0  0
    0.3362    3.1026   -1.2571 C   0  0  0  0  0  0
   -2.5252   -2.2289   -0.0041 H   0  0  0  0  0  0
   -4.4632    4.4374    0.0400 H   0  0  0  0  0  0
   -5.7589    3.6010    0.9610 H   0  0  0  0  0  0
   -5.7908    3.6017   -0.8350 H   0  0  0  0  0  0
   -6.0476    0.9765    0.0674 H   0  0  0  0  0  0
   -4.7004   -1.1046    0.0402 H   0  0  0  0  0  0
   -2.4410    3.3302    0.0052 H   0  0  0  0  0  0
    1.9582    0.7710    0.5480 H   0  0  0  0  0  0
    1.8904   -1.0154    0.3732 H   0  0  0  0  0  0
    0.1810    2.5952    2.1256 H   0  0  0  0  0  0
    1.3618    4.7837    2.1087 H   0  0  0  0  0  0
    1.8908    5.8978   -0.0525 H   0  0  0  0  0  0
    1.2293    4.8291   -2.2002 H   0  0  0  0  0  0
    0.0474    2.6418   -2.1906 H   0  0  0  0  0  0
  1  2  1  0  0  0
  1 24  1  0  0  0
  1 25  1  0  0  0
  1 26  1  0  0  0
  2  7  1  0  0  0
  2  3  2  0  0  0
  3  4  1  0  0  0
  3 27  1  0  0  0
  4  5  2  0  0  0
  4 28  1  0  0  0
  5 12  1  0  0  0
  5  6  1  0  0  0
  6  7  2  0  0  0
  6  8  1  0  0  0
  7 29  1  0  0  0
  8  9  2  0  0  0
  8 17  1  0  0  0
  9 10  1  0  0  0
  9 13  1  0  0  0
 10 11  2  0  0  0
 10 12  1  0  0  0
 12 23  1  0  0  0
 13 14  1  0  0  0
 13 30  1  0  0  0
 13 31  1  0  0  0
 14 15  2  0  0  0
 14 16  1  0  0  0
 17 22  1  0  0  0
 17 18  2  0  0  0
 18 19  1  0  0  0
 18 32  1  0  0  0
 19 20  2  0  0  0
 19 33  1  0  0  0
 20 21  1  0  0  0
 20 34  1  0  0  0
 21 22  2  0  0  0
 21 35  1  0  0  0
 22 36  1  0  0  0
M  CHG  1  16  -1
M  END
> <s_m_source_file>
SM08.smi

> <i_m_source_file_index>
1

> <i_lp_mmshare_version>
40011

> <i_f3d_flags>
0

> <s_lp_Force_Field>
OPLS_2005

> <r_lp_Energy>
21.8800321748075

> <b_lp_Chiralities_Consistent>
1

> <s_lp_Variant>
SM08-1

> <s_epik_input>
W2NIXTFbY0hdYyhbQ0gzXSlbY0hdYyhjMTIpYyhjKGMoPU8pW25IXTIpW0NIMl1DKD1PKVtPSF0pLWMzW2NIXVtjSF1bY0hdW2NIXVtjSF0z

> <s_epik_cmdline>
J2VwaWtfYXBwJywgJy1pbWFlJywgJ1NNMDguNC42Lm1hZScsICctb21hZScsICdTTTA4LmVwaWsuNC42Lm1hZScsICctcCcsICcwLjAwMDA0NTM5OTkyOTgnLCAnLXBoJywgJzQuNic=

> <r_epik_Ionization_Penalty>
  0.1660

> <r_epik_Ionization_Penalty_Charging>
  0.1660

> <r_epik_Ionization_Penalty_Neutral>
  0.0000

> <r_epik_State_Penalty>
  0.1551

> <r_epik_Charging_Adjusted_Penalty>
0.321121780964914

> <i_epik_Tot_Q>
-1

> <i_epik_Tot_abs_Q>
1

$$$$
SM08
                    3D
 Structure written by MMmdl.
 37 39  0  0  1  0            999 V2000
   -5.1407    3.5709    0.0517 C   0  0  0  0  0  0
   -4.3267    2.2933    0.0367 C   0  0  0  0  0  0
   -4.9694    1.0381    0.0476 C   0  0  0  0  0  0
   -4.2058   -0.1442    0.0322 C   0  0  0  0  0  0
   -2.7999   -0.0672    0.0063 C   0  0  0  0  0  0
   -2.1435    1.1778   -0.0029 C   0  0  0  0  0  0
   -2.9179    2.3611    0.0123 C   0  0  0  0  0  0
   -0.6651    1.1768   -0.0254 C   0  0  0  0  0  0
    0.0225   -0.0014   -0.0363 C   0  0  0  0  0  0
   -0.6826   -1.2982   -0.0414 C   0  0  0  0  0  0
   -0.1185   -2.3906   -0.0784 O   0  0  0  0  0  0
   -2.0288   -1.2473   -0.0126 N   0  0  0  0  0  0
    1.5545   -0.0580   -0.0518 C   0  0  0  0  0  0
    2.2218    0.0510   -1.4250 C   0  0  0  0  0  0
    1.5996    0.1190   -2.4836 O   0  0  0  0  0  0
    3.5811    0.0609   -1.3135 O   0  0  0  0  0  0
    0.0531    2.4631   -0.0325 C   0  0  0  0  0  0
    0.4121    3.0756    1.1861 C   0  0  0  0  0  0
    1.0798    4.3158    1.1770 C   0  0  0  0  0  0
    1.3785    4.9470   -0.0467 C   0  0  0  0  0  0
    1.0047    4.3420   -1.2629 C   0  0  0  0  0  0
    0.3362    3.1026   -1.2571 C   0  0  0  0  0  0
   -2.5252   -2.2289   -0.0041 H   0  0  0  0  0  0
   -4.4632    4.4374    0.0400 H   0  0  0  0  0  0
   -5.7589    3.6010    0.9610 H   0  0  0  0  0  0
   -5.7908    3.6017   -0.8350 H   0  0  0  0  0  0
   -6.0476    0.9765    0.0674 H   0  0  0  0  0  0
   -4.7004   -1.1046    0.0402 H   0  0  0  0  0  0
   -2.4410    3.3302    0.0052 H   0  0  0  0  0  0
    1.9582    0.7710    0.5480 H   0  0  0  0  0  0
    1.8904   -1.0154    0.3732 H   0  0  0  0  0  0
    4.2064    0.1350   -2.2154 H   0  0  0  0  0  0
    0.1810    2.5952    2.1256 H   0  0  0  0  0  0
    1.3618    4.7837    2.1087 H   0  0  0  0  0  0
    1.8908    5.8978   -0.0525 H   0  0  0  0  0  0
    1.2293    4.8291   -2.2002 H   0  0  0  0  0  0
    0.0474    2.6418   -2.1906 H   0  0  0  0  0  0
  1  2  1  0  0  0
  1 24  1  0  0  0
  1 25  1  0  0  0
  1 26  1  0  0  0
  2  7  1  0  0  0
  2  3  2  0  0  0
  3  4  1  0  0  0
  3 27  1  0  0  0
  4  5  2  0  0  0
  4 28  1  0  0  0
  5 12  1  0  0  0
  5  6  1  0  0  0
  6  7  2  0  0  0
  6  8  1  0  0  0
  7 29  1  0  0  0
  8  9  2  0  0  0
  8 17  1  0  0  0
  9 10  1  0  0  0
  9 13  1  0  0  0
 10 11  2  0  0  0
 10 12  1  0  0  0
 12 23  1  0  0  0
 13 14  1  0  0  0
 13 30  1  0  0  0
 13 31  1  0  0  0
 14 15  2  0  0  0
 14 16  1  0  0  0
 16 32  1  0  0  0
 17 22  1  0  0  0
 17 18  2  0  0  0
 18 19  1  0  0  0
 18 33  1  0  0  0
 19 20  2  0  0  0
 19 34  1  0  0  0
 20 21  1  0  0  0
 20 35  1  0  0  0
 21 22  2  0  0  0
 21 36  1  0  0  0
 22 37  1  0  0  0
M  END
> <s_m_source_file>
SM08.smi

> <i_m_source_file_index>
1

> <i_lp_mmshare_version>
40011

> <i_f3d_flags>
0

> <s_lp_Force_Field>
OPLS_2005

> <r_lp_Energy>
21.8800321748075

> <b_lp_Chiralities_Consistent>
1

> <s_lp_Variant>
SM08-1

> <s_epik_input>
W2NIXTFbY0hdYyhbQ0gzXSlbY0hdYyhjMTIpYyhjKGMoPU8pW25IXTIpW0NIMl1DKD1PKVtPSF0pLWMzW2NIXVtjSF1bY0hdW2NIXVtjSF0z

> <s_epik_cmdline>
J2VwaWtfYXBwJywgJy1pbWFlJywgJ1NNMDguNC42Lm1hZScsICctb21hZScsICdTTTA4LmVwaWsuNC42Lm1hZScsICctcCcsICcwLjAwMDA0NTM5OTkyOTgnLCAnLXBoJywgJzQuNic=

> <r_epik_Ionization_Penalty>
  0.8357

> <r_epik_Ionization_Penalty_Charging>
  0.0000

> <r_epik_Ionization_Penalty_Neutral>
  0.8356

> <r_epik_State_Penalty>
  0.8699

> <r_epik_Charging_Adjusted_Penalty>
0.869946917229819

> <i_epik_Tot_Q>
0

> <i_epik_Tot_abs_Q>
0

$$$$
