SM10
                    3D
 Structure written by MMmdl.
 35 37  0  0  1  0            999 V2000
   -4.7500   -0.5230   -0.0492 C   0  0  0  0  0  0
   -4.4882    0.8593   -0.0054 C   0  0  0  0  0  0
   -3.1631    1.3295   -0.0905 C   0  0  0  0  0  0
   -2.0869    0.4215   -0.2113 C   0  0  0  0  0  0
   -2.3604   -0.9658   -0.2676 C   0  0  0  0  0  0
   -3.6860   -1.4348   -0.1826 C   0  0  0  0  0  0
   -0.6807    0.9376   -0.3242 C   0  0  0  0  0  0
   -0.4470    2.0290   -0.8439 O   0  0  0  0  0  0
    0.2698    0.1543    0.2133 N   0  0  0  0  0  0
    1.7028    0.4517    0.2308 C   0  0  0  0  0  0
    2.4633    0.0654   -1.0493 C   0  0  0  0  0  0
    3.6659    0.3184   -1.1116 O   0  0  0  0  0  0
    1.7648   -0.5361   -2.0339 N   0  0  0  0  0  0
    2.2151   -0.9828   -3.3040 C   0  0  0  0  0  0
    3.4867   -0.8684   -3.7149 N   0  0  0  0  0  0
    3.6153   -1.3907   -4.9989 C   0  0  0  0  0  0
    4.7944   -1.4514   -5.7777 C   0  0  0  0  0  0
    4.7853   -2.0094   -7.0716 C   0  0  0  0  0  0
    3.5915   -2.5210   -7.6148 C   0  0  0  0  0  0
    2.4031   -2.4743   -6.8631 C   0  0  0  0  0  0
    2.4173   -1.9149   -5.5716 C   0  0  0  0  0  0
    1.0847   -1.7328   -4.4334 S   0  0  0  0  0  0
   -5.7662   -0.8832    0.0148 H   0  0  0  0  0  0
   -5.3042    1.5602    0.0919 H   0  0  0  0  0  0
   -2.9793    2.3939   -0.0582 H   0  0  0  0  0  0
   -1.5602   -1.6829   -0.3808 H   0  0  0  0  0  0
   -3.8872   -2.4951   -0.2231 H   0  0  0  0  0  0
   -0.1044   -0.7758    0.6658 H   0  0  0  0  0  0
    1.8513    1.5326    0.3710 H   0  0  0  0  0  0
    2.1806   -0.0943    1.0576 H   0  0  0  0  0  0
    0.6919   -0.7395   -1.9019 H   0  0  0  0  0  0
    5.7176   -1.0629   -5.3737 H   0  0  0  0  0  0
    5.6980   -2.0445   -7.6484 H   0  0  0  0  0  0
    3.5880   -2.9476   -8.6070 H   0  0  0  0  0  0
    1.4839   -2.8639   -7.2750 H   0  0  0  0  0  0
  1  6  1  0  0  0
  1  2  2  0  0  0
  1 23  1  0  0  0
  2  3  1  0  0  0
  2 24  1  0  0  0
  3  4  2  0  0  0
  3 25  1  0  0  0
  4  5  1  0  0  0
  4  7  1  0  0  0
  5  6  2  0  0  0
  5 26  1  0  0  0
  6 27  1  0  0  0
  7  8  2  0  0  0
  7  9  1  0  0  0
  9 10  1  0  0  0
  9 28  1  0  0  0
 10 11  1  0  0  0
 10 29  1  0  0  0
 10 30  1  0  0  0
 11 12  2  0  0  0
 11 13  1  0  0  0
 13 14  1  0  0  0
 13 31  1  0  0  0
 14 22  1  0  0  0
 14 15  2  0  0  0
 15 16  1  0  0  0
 16 21  2  0  0  0
 16 17  1  0  0  0
 17 18  2  0  0  0
 17 32  1  0  0  0
 18 19  1  0  0  0
 18 33  1  0  0  0
 19 20  2  0  0  0
 19 34  1  0  0  0
 20 21  1  0  0  0
 20 35  1  0  0  0
 21 22  1  0  0  0
M  END
> <s_m_source_file>
SM10.smi

> <i_m_source_file_index>
1

> <i_lp_mmshare_version>
40011

> <i_f3d_flags>
0

> <s_lp_Force_Field>
OPLS_2005

> <r_lp_Energy>
12.8643558380919

> <b_lp_Chiralities_Consistent>
1

> <s_lp_Variant>
SM10-1

> <s_epik_input>
W2NIXTFbY0hdW2NIXVtjSF1bY0hdYzFDKD1PKVtOSF1bQ0gyXUMoPU8pW05IXWMobjIpc2MoYzIzKVtjSF1bY0hdW2NIXVtjSF0z

> <s_epik_cmdline>
J2VwaWtfYXBwJywgJy1pbWFlJywgJ1NNMTAuNy4yLm1hZScsICctb21hZScsICdTTTEwLmVwaWsuNy4yLm1hZScsICctcCcsICcwLjAwMDA0NTM5OTkyOTgnLCAnLXBoJywgJzcuMic=

> <r_epik_Ionization_Penalty>
  0.0196

> <r_epik_Ionization_Penalty_Charging>
  0.0000

> <r_epik_Ionization_Penalty_Neutral>
  0.0196

> <r_epik_State_Penalty>
  0.0180

> <r_epik_Charging_Adjusted_Penalty>
0.0180181999621502

> <i_epik_Tot_Q>
0

> <i_epik_Tot_abs_Q>
0

$$$$
SM10
                    3D
 Structure written by MMmdl.
 34 36  0  0  1  0            999 V2000
   -4.7500   -0.5230   -0.0492 C   0  0  0  0  0  0
   -4.4882    0.8593   -0.0054 C   0  0  0  0  0  0
   -3.1631    1.3295   -0.0905 C   0  0  0  0  0  0
   -2.0869    0.4215   -0.2113 C   0  0  0  0  0  0
   -2.3604   -0.9658   -0.2676 C   0  0  0  0  0  0
   -3.6860   -1.4348   -0.1826 C   0  0  0  0  0  0
   -0.6807    0.9376   -0.3242 C   0  0  0  0  0  0
   -0.4470    2.0290   -0.8439 O   0  0  0  0  0  0
    0.2698    0.1543    0.2133 N   0  0  0  0  0  0
    1.7028    0.4517    0.2308 C   0  0  0  0  0  0
    2.4633    0.0654   -1.0493 C   0  0  0  0  0  0
    3.6659    0.3184   -1.1116 O   0  5  0  0  0  0
    1.7648   -0.5361   -2.0339 N   0  0  0  0  0  0
    2.2151   -0.9828   -3.3040 C   0  0  0  0  0  0
    3.4867   -0.8684   -3.7149 N   0  0  0  0  0  0
    3.6153   -1.3907   -4.9989 C   0  0  0  0  0  0
    4.7944   -1.4514   -5.7777 C   0  0  0  0  0  0
    4.7853   -2.0094   -7.0716 C   0  0  0  0  0  0
    3.5915   -2.5210   -7.6148 C   0  0  0  0  0  0
    2.4031   -2.4743   -6.8631 C   0  0  0  0  0  0
    2.4173   -1.9149   -5.5716 C   0  0  0  0  0  0
    1.0847   -1.7328   -4.4334 S   0  0  0  0  0  0
   -5.7662   -0.8832    0.0148 H   0  0  0  0  0  0
   -5.3042    1.5602    0.0919 H   0  0  0  0  0  0
   -2.9793    2.3939   -0.0582 H   0  0  0  0  0  0
   -1.5602   -1.6829   -0.3808 H   0  0  0  0  0  0
   -3.8872   -2.4951   -0.2231 H   0  0  0  0  0  0
   -0.1044   -0.7758    0.6658 H   0  0  0  0  0  0
    1.8513    1.5326    0.3710 H   0  0  0  0  0  0
    2.1806   -0.0943    1.0576 H   0  0  0  0  0  0
    5.7176   -1.0629   -5.3737 H   0  0  0  0  0  0
    5.6980   -2.0445   -7.6484 H   0  0  0  0  0  0
    3.5880   -2.9476   -8.6070 H   0  0  0  0  0  0
    1.4839   -2.8639   -7.2750 H   0  0  0  0  0  0
  1  6  1  0  0  0
  1  2  2  0  0  0
  1 23  1  0  0  0
  2  3  1  0  0  0
  2 24  1  0  0  0
  3  4  2  0  0  0
  3 25  1  0  0  0
  4  5  1  0  0  0
  4  7  1  0  0  0
  5  6  2  0  0  0
  5 26  1  0  0  0
  6 27  1  0  0  0
  7  8  2  0  0  0
  7  9  1  0  0  0
  9 10  1  0  0  0
  9 28  1  0  0  0
 10 11  1  0  0  0
 10 29  1  0  0  0
 10 30  1  0  0  0
 11 12  1  0  0  0
 11 13  2  0  0  0
 13 14  1  0  0  0
 14 22  1  0  0  0
 14 15  2  0  0  0
 15 16  1  0  0  0
 16 21  2  0  0  0
 16 17  1  0  0  0
 17 18  2  0  0  0
 17 31  1  0  0  0
 18 19  1  0  0  0
 18 32  1  0  0  0
 19 20  2  0  0  0
 19 33  1  0  0  0
 20 21  1  0  0  0
 20 34  1  0  0  0
 21 22  1  0  0  0
M  CHG  1  12  -1
M  END
> <s_m_source_file>
SM10.smi

> <i_m_source_file_index>
1

> <i_lp_mmshare_version>
40011

> <i_f3d_flags>
0

> <s_lp_Force_Field>
OPLS_2005

> <r_lp_Energy>
12.8643558380919

> <b_lp_Chiralities_Consistent>
1

> <s_lp_Variant>
SM10-1

> <s_epik_input>
W2NIXTFbY0hdW2NIXVtjSF1bY0hdYzFDKD1PKVtOSF1bQ0gyXUMoPU8pW05IXWMobjIpc2MoYzIzKVtjSF1bY0hdW2NIXVtjSF0z

> <s_epik_cmdline>
J2VwaWtfYXBwJywgJy1pbWFlJywgJ1NNMTAuNy4yLm1hZScsICctb21hZScsICdTTTEwLmVwaWsuNy4yLm1hZScsICctcCcsICcwLjAwMDA0NTM5OTkyOTgnLCAnLXBoJywgJzcuMic=

> <r_epik_Ionization_Penalty>
  2.1210

> <r_epik_Ionization_Penalty_Charging>
  2.0283

> <r_epik_Ionization_Penalty_Neutral>
  0.0927

> <r_epik_State_Penalty>
  2.1615

> <r_epik_Charging_Adjusted_Penalty>
4.18978307639002

> <i_epik_Tot_Q>
-1

> <i_epik_Tot_abs_Q>
1

$$$$
SM10
                    3D
 Structure written by MMmdl.
 35 37  0  0  1  0            999 V2000
   -4.7500   -0.5230   -0.0492 C   0  0  0  0  0  0
   -4.4882    0.8593   -0.0054 C   0  0  0  0  0  0
   -3.1631    1.3295   -0.0905 C   0  0  0  0  0  0
   -2.0869    0.4215   -0.2113 C   0  0  0  0  0  0
   -2.3604   -0.9658   -0.2676 C   0  0  0  0  0  0
   -3.6860   -1.4348   -0.1826 C   0  0  0  0  0  0
   -0.6807    0.9376   -0.3242 C   0  0  0  0  0  0
   -0.4470    2.0290   -0.8439 O   0  0  0  0  0  0
    0.2698    0.1543    0.2133 N   0  0  0  0  0  0
    1.7028    0.4517    0.2308 C   0  0  0  0  0  0
    2.4633    0.0654   -1.0493 C   0  0  0  0  0  0
    3.6659    0.3184   -1.1116 O   0  0  0  0  0  0
    1.7648   -0.5361   -2.0339 N   0  0  0  0  0  0
    2.2151   -0.9828   -3.3040 C   0  0  0  0  0  0
    3.4867   -0.8684   -3.7149 N   0  0  0  0  0  0
    3.6153   -1.3907   -4.9989 C   0  0  0  0  0  0
    4.7944   -1.4514   -5.7777 C   0  0  0  0  0  0
    4.7853   -2.0094   -7.0716 C   0  0  0  0  0  0
    3.5915   -2.5210   -7.6148 C   0  0  0  0  0  0
    2.4031   -2.4743   -6.8631 C   0  0  0  0  0  0
    2.4173   -1.9149   -5.5716 C   0  0  0  0  0  0
    1.0847   -1.7328   -4.4334 S   0  0  0  0  0  0
   -5.7662   -0.8832    0.0148 H   0  0  0  0  0  0
   -5.3042    1.5602    0.0919 H   0  0  0  0  0  0
   -2.9793    2.3939   -0.0582 H   0  0  0  0  0  0
   -1.5602   -1.6829   -0.3808 H   0  0  0  0  0  0
   -3.8872   -2.4951   -0.2231 H   0  0  0  0  0  0
   -0.1044   -0.7758    0.6658 H   0  0  0  0  0  0
    1.8513    1.5326    0.3710 H   0  0  0  0  0  0
    2.1806   -0.0943    1.0576 H   0  0  0  0  0  0
    5.7176   -1.0629   -5.3737 H   0  0  0  0  0  0
    5.6980   -2.0445   -7.6484 H   0  0  0  0  0  0
    3.5880   -2.9476   -8.6070 H   0  0  0  0  0  0
    1.4839   -2.8639   -7.2750 H   0  0  0  0  0  0
    4.2392   -0.4124   -3.0547 H   0  0  0  0  0  0
  1  6  1  0  0  0
  1  2  2  0  0  0
  1 23  1  0  0  0
  2  3  1  0  0  0
  2 24  1  0  0  0
  3  4  2  0  0  0
  3 25  1  0  0  0
  4  5  1  0  0  0
  4  7  1  0  0  0
  5  6  2  0  0  0
  5 26  1  0  0  0
  6 27  1  0  0  0
  7  8  2  0  0  0
  7  9  1  0  0  0
  9 10  1  0  0  0
  9 28  1  0  0  0
 10 11  1  0  0  0
 10 29  1  0  0  0
 10 30  1  0  0  0
 11 12  2  0  0  0
 11 13  1  0  0  0
 13 14  2  0  0  0
 14 22  1  0  0  0
 14 15  1  0  0  0
 15 16  1  0  0  0
 15 35  1  0  0  0
 16 21  2  0  0  0
 16 17  1  0  0  0
 17 18  2  0  0  0
 17 31  1  0  0  0
 18 19  1  0  0  0
 18 32  1  0  0  0
 19 20  2  0  0  0
 19 33  1  0  0  0
 20 21  1  0  0  0
 20 34  1  0  0  0
 21 22  1  0  0  0
M  END
> <s_m_source_file>
SM10.smi

> <i_m_source_file_index>
1

> <i_lp_mmshare_version>
40011

> <i_f3d_flags>
0

> <s_lp_Force_Field>
OPLS_2005

> <r_lp_Energy>
12.8643558380919

> <b_lp_Chiralities_Consistent>
1

> <s_lp_Variant>
SM10-1

> <s_epik_input>
W2NIXTFbY0hdW2NIXVtjSF1bY0hdYzFDKD1PKVtOSF1bQ0gyXUMoPU8pW05IXWMobjIpc2MoYzIzKVtjSF1bY0hdW2NIXVtjSF0z

> <s_epik_cmdline>
J2VwaWtfYXBwJywgJy1pbWFlJywgJ1NNMTAuNy4yLm1hZScsICctb21hZScsICdTTTEwLmVwaWsuNy4yLm1hZScsICctcCcsICcwLjAwMDA0NTM5OTkyOTgnLCAnLXBoJywgJzcuMic=

> <r_epik_Ionization_Penalty>
  1.1453

> <r_epik_Ionization_Penalty_Charging>
  1.1450

> <r_epik_Ionization_Penalty_Neutral>
  0.0003

> <r_epik_State_Penalty>
  3.2844

> <r_epik_Charging_Adjusted_Penalty>
4.42940092681747

> <i_epik_Tot_Q>
0

> <i_epik_Tot_abs_Q>
0

$$$$
